<?xml version="1.0" encoding="UTF-8"?>

<!-- generated on 03/07/21 13:23:57 by Eclipse SUMO duarouter Version 1.8.0
<configuration xmlns:xsi="http://www.w3.org/2001/XMLSchema-instance" xsi:noNamespaceSchemaLocation="http://sumo.dlr.de/xsd/duarouterConfiguration.xsd">

    <input>
        <net-file value="C:\Program%20Files%20(x86)\Eclipse\Sumo\tools\2021-03-07-13-23-46\osm.net.xml"/>
        <route-files value="C:\Program%20Files%20(x86)\Eclipse\Sumo\tools\2021-03-07-13-23-46\osm.bicycle.trips.xml"/>
    </input>

    <output>
        <output-file value="C:\Program%20Files%20(x86)\Eclipse\Sumo\tools\2021-03-07-13-23-46\osm.bicycle.trips.xml.tmp"/>
        <write-trips value="true"/>
    </output>

    <time>
        <begin value="0"/>
        <end value="3600"/>
    </time>

    <report>
        <no-warnings value="true"/>
        <ignore-errors value="true"/>
        <no-step-log value="true"/>
    </report>

</configuration>
-->

<routes xmlns:xsi="http://www.w3.org/2001/XMLSchema-instance" xsi:noNamespaceSchemaLocation="http://sumo.dlr.de/xsd/routes_file.xsd">
    <vType id="bike_bicycle" vClass="bicycle">
        <param key="has.ssm.device" value="true"/>
        <param key="device.ssm.file" value="ssm_north_bicycle.xml" />
        <param key="device.ssm.probability" value="1"/>
        <param key="device.ssm.deterministic" value="True"/>
        <param key="device.ssm.measures" value="TTC PET"/>
        <param key="device.ssm.thresholds"  value="1.5 2"/>
        <param key="device.ssm.range" value="20"/>
        <param key="device.ssm.extratime" value="0.5"/>
        <param key="device.ssm.trajectories" value="False"/>
        <param key="device.ssm.geo" value="True"/>
        <param key="has.tripinfo.device" value="true"/>
        <param key="device.tripinfo.probability" value="true"/>
    </vType>
    <trip id="bike0" type="bike_bicycle" depart="0.00" departLane="best" from="3708838#3" to="-13871250"/>
    <trip id="bike1" type="bike_bicycle" depart="7.11" departLane="best" from="-49710569#2" to="-4395970"/>
    <trip id="bike2" type="bike_bicycle" depart="14.23" departLane="best" from="397464856#3" to="3789368#5"/>
    <trip id="bike3" type="bike_bicycle" depart="21.34" departLane="best" from="52375079#1" to="-31004179#0"/>
    <trip id="bike4" type="bike_bicycle" depart="28.46" departLane="best" from="13871250" to="-14047795#4"/>
    <trip id="bike5" type="bike_bicycle" depart="35.57" departLane="best" from="-422732485#1" to="283027965#0"/>
    <trip id="bike6" type="bike_bicycle" depart="42.68" departLane="best" from="-14047795#1" to="-401764333#1"/>
    <trip id="bike7" type="bike_bicycle" depart="49.80" departLane="best" from="372256216#1" to="31028273"/>
    <trip id="bike8" type="bike_bicycle" depart="56.91" departLane="best" from="-422732486" to="35078316#2"/>
    <trip id="bike9" type="bike_bicycle" depart="64.03" departLane="best" from="4401781#3" to="-125814738#1"/>
    <trip id="bike10" type="bike_bicycle" depart="71.14" departLane="best" from="4401661#3" to="3789578"/>
    <trip id="bike11" type="bike_bicycle" depart="78.25" departLane="best" from="-64270035#0" to="-372256216#7"/>
    <trip id="bike12" type="bike_bicycle" depart="85.37" departLane="best" from="64270140" to="-63908781"/>
    <trip id="bike13" type="bike_bicycle" depart="92.48" departLane="best" from="-310196058" to="-317027067"/>
    <trip id="bike14" type="bike_bicycle" depart="99.59" departLane="best" from="48859797#0" to="35081617#1"/>
    <trip id="bike15" type="bike_bicycle" depart="106.71" departLane="best" from="4401781#0" to="39255348#2"/>
    <trip id="bike16" type="bike_bicycle" depart="113.82" departLane="best" from="31004181#3" to="750330957"/>
    <trip id="bike17" type="bike_bicycle" depart="120.94" departLane="best" from="-94838278#1" to="317127411"/>
    <trip id="bike18" type="bike_bicycle" depart="128.05" departLane="best" from="445383139" to="361409608#1"/>
    <trip id="bike19" type="bike_bicycle" depart="135.16" departLane="best" from="4908204#1" to="35060879#0"/>
    <trip id="bike20" type="bike_bicycle" depart="142.28" departLane="best" from="383996050" to="-233075611#1"/>
    <trip id="bike21" type="bike_bicycle" depart="149.39" departLane="best" from="-4396159#0" to="-52321641#4"/>
    <trip id="bike22" type="bike_bicycle" depart="156.51" departLane="best" from="-292662750#0" to="-442035815#1"/>
    <trip id="bike23" type="bike_bicycle" depart="163.62" departLane="best" from="-334138114#2" to="-50016333"/>
    <trip id="bike24" type="bike_bicycle" depart="170.73" departLane="best" from="3708578#3" to="-757833288"/>
    <trip id="bike25" type="bike_bicycle" depart="177.85" departLane="best" from="-80439756#2" to="-41772644#0"/>
    <trip id="bike26" type="bike_bicycle" depart="184.96" departLane="best" from="-48985678" to="6273610#2"/>
    <trip id="bike28" type="bike_bicycle" depart="199.19" departLane="best" from="-3789372#1" to="39255348#1"/>
    <trip id="bike29" type="bike_bicycle" depart="206.30" departLane="best" from="-3789251#1" to="-94838278#3"/>
    <trip id="bike30" type="bike_bicycle" depart="213.42" departLane="best" from="904307305" to="3716925"/>
    <trip id="bike31" type="bike_bicycle" depart="220.53" departLane="best" from="334138114#3" to="3789372#6"/>
    <trip id="bike32" type="bike_bicycle" depart="227.64" departLane="best" from="474590054" to="422732485#1"/>
    <trip id="bike33" type="bike_bicycle" depart="234.76" departLane="best" from="-4396159#1" to="-14331345"/>
    <trip id="bike34" type="bike_bicycle" depart="241.87" departLane="best" from="-550187801" to="-48985680"/>
    <trip id="bike35" type="bike_bicycle" depart="248.99" departLane="best" from="-41772644#1" to="6273612#4"/>
    <trip id="bike36" type="bike_bicycle" depart="256.10" departLane="best" from="52321640#1" to="-550187801"/>
    <trip id="bike37" type="bike_bicycle" depart="263.21" departLane="best" from="37721990" to="128450676#0"/>
    <trip id="bike39" type="bike_bicycle" depart="277.44" departLane="best" from="-48985674#0" to="-461653745"/>
    <trip id="bike40" type="bike_bicycle" depart="284.56" departLane="best" from="33920769#1" to="-48985673#0"/>
    <trip id="bike41" type="bike_bicycle" depart="291.67" departLane="best" from="35060881" to="52822147#2"/>
    <trip id="bike42" type="bike_bicycle" depart="298.78" departLane="best" from="128450677#0" to="-422732486"/>
    <trip id="bike43" type="bike_bicycle" depart="305.90" departLane="best" from="94838283#2" to="290533449#1"/>
    <trip id="bike44" type="bike_bicycle" depart="313.01" departLane="best" from="-310196057#0" to="-233075611#2"/>
    <trip id="bike45" type="bike_bicycle" depart="320.13" departLane="best" from="-35060879#1" to="3708465#0"/>
    <trip id="bike46" type="bike_bicycle" depart="327.24" departLane="best" from="4396056" to="13871250"/>
    <trip id="bike47" type="bike_bicycle" depart="334.35" departLane="best" from="-283027965#0" to="-94838283#2"/>
    <trip id="bike48" type="bike_bicycle" depart="341.47" departLane="best" from="94838283#0" to="30988140"/>
    <trip id="bike49" type="bike_bicycle" depart="348.58" departLane="best" from="750249502" to="4908185"/>
    <trip id="bike50" type="bike_bicycle" depart="355.69" departLane="best" from="-128450676#2" to="39178107#1"/>
    <trip id="bike51" type="bike_bicycle" depart="362.81" departLane="best" from="3789372#2" to="31004181#3"/>
    <trip id="bike52" type="bike_bicycle" depart="369.92" departLane="best" from="-48985678" to="372226859#0"/>
    <trip id="bike53" type="bike_bicycle" depart="377.04" departLane="best" from="-35060880" to="14047796"/>
    <trip id="bike54" type="bike_bicycle" depart="384.15" departLane="best" from="153360305" to="64270137#3"/>
    <trip id="bike55" type="bike_bicycle" depart="391.26" departLane="best" from="52321640#0" to="-48985673#1"/>
    <trip id="bike56" type="bike_bicycle" depart="398.38" departLane="best" from="271946366" to="-383996050"/>
    <trip id="bike57" type="bike_bicycle" depart="405.49" departLane="best" from="55200269" to="50014738"/>
    <trip id="bike58" type="bike_bicycle" depart="412.61" departLane="best" from="-52324406" to="3716924"/>
    <trip id="bike59" type="bike_bicycle" depart="419.72" departLane="best" from="35081619#1" to="-372256216#4"/>
    <trip id="bike60" type="bike_bicycle" depart="426.83" departLane="best" from="41772641" to="31004181#7"/>
    <trip id="bike61" type="bike_bicycle" depart="433.95" departLane="best" from="432565295#1" to="30988141"/>
    <trip id="bike62" type="bike_bicycle" depart="441.06" departLane="best" from="-125813720" to="-619879373"/>
    <trip id="bike63" type="bike_bicycle" depart="448.18" departLane="best" from="-135582946#0" to="619585296"/>
    <trip id="bike64" type="bike_bicycle" depart="455.29" departLane="best" from="52321641#0" to="445383138"/>
    <trip id="bike65" type="bike_bicycle" depart="462.40" departLane="best" from="-549289143" to="-265511640"/>
    <trip id="bike66" type="bike_bicycle" depart="469.52" departLane="best" from="52321640#2" to="64226715#3"/>
    <trip id="bike67" type="bike_bicycle" depart="476.63" departLane="best" from="-296747004" to="24807207#0"/>
    <trip id="bike68" type="bike_bicycle" depart="483.75" departLane="best" from="-290556058#0" to="40641511"/>
    <trip id="bike69" type="bike_bicycle" depart="490.86" departLane="best" from="41772644#5" to="-354380392#0"/>
    <trip id="bike70" type="bike_bicycle" depart="497.97" departLane="best" from="233674059" to="317027066#2"/>
    <trip id="bike71" type="bike_bicycle" depart="505.09" departLane="best" from="-48985674#0" to="50016333"/>
    <trip id="bike72" type="bike_bicycle" depart="512.20" departLane="best" from="13871252#0" to="-41772644#6"/>
    <trip id="bike73" type="bike_bicycle" depart="519.31" departLane="best" from="31004181#7" to="39255348#2"/>
    <trip id="bike74" type="bike_bicycle" depart="526.43" departLane="best" from="-401767522#0" to="-550010926"/>
    <trip id="bike75" type="bike_bicycle" depart="533.54" departLane="best" from="94838278#3" to="372256216#6"/>
    <trip id="bike76" type="bike_bicycle" depart="540.66" departLane="best" departSpeed="max" from="14401069#0" to="291344732#1"/>
    <trip id="bike77" type="bike_bicycle" depart="547.77" departLane="best" from="-35078322#2" to="-4395994#1"/>
    <trip id="bike78" type="bike_bicycle" depart="554.88" departLane="best" from="-64226715#3" to="35078316#1"/>
    <trip id="bike79" type="bike_bicycle" depart="562.00" departLane="best" from="-4396159#3" to="-424908233"/>
    <trip id="bike80" type="bike_bicycle" depart="569.11" departLane="best" from="-290556058#2" to="3708577"/>
    <trip id="bike81" type="bike_bicycle" depart="576.23" departLane="best" from="-4396159#1" to="549289141#3"/>
    <trip id="bike82" type="bike_bicycle" depart="583.34" departLane="best" from="4908199#1" to="-291344731#0"/>
    <trip id="bike83" type="bike_bicycle" depart="590.45" departLane="best" from="-442035819#1" to="3789251#4"/>
    <trip id="bike84" type="bike_bicycle" depart="597.57" departLane="best" from="-422732483#0" to="-358260293"/>
    <trip id="bike86" type="bike_bicycle" depart="611.80" departLane="best" from="233075611#1" to="432565295#4"/>
    <trip id="bike87" type="bike_bicycle" depart="618.91" departLane="best" from="4401781#1" to="-39179549#1"/>
    <trip id="bike88" type="bike_bicycle" depart="626.02" departLane="best" from="-317027066#2" to="14047795#1"/>
    <trip id="bike89" type="bike_bicycle" depart="633.14" departLane="best" from="13871252#1" to="229119089#1"/>
    <trip id="bike90" type="bike_bicycle" depart="640.25" departLane="best" from="39255348#2" to="3789252#3"/>
    <trip id="bike91" type="bike_bicycle" depart="647.36" departLane="best" from="83942465" to="-334138114#1"/>
    <trip id="bike92" type="bike_bicycle" depart="654.48" departLane="best" from="12854626#0" to="-64270035#0"/>
    <trip id="bike93" type="bike_bicycle" depart="661.59" departLane="best" from="4908204#1" to="-461653888"/>
    <trip id="bike94" type="bike_bicycle" depart="668.71" departLane="best" from="-39179549#0" to="147077493#0"/>
    <trip id="bike95" type="bike_bicycle" depart="675.82" departLane="best" from="13871250" to="-509526367"/>
    <trip id="bike96" type="bike_bicycle" depart="682.93" departLane="best" from="-461653888" to="585819383#0"/>
    <trip id="bike97" type="bike_bicycle" depart="690.05" departLane="best" from="14401069#8" to="4908185"/>
    <trip id="bike98" type="bike_bicycle" depart="697.16" departLane="best" from="317027067" to="-24807207#0"/>
    <trip id="bike99" type="bike_bicycle" depart="704.28" departLane="best" from="94838283#4" to="473472735"/>
    <trip id="bike100" type="bike_bicycle" depart="711.39" departLane="best" from="682430068#1" to="59172069#2"/>
    <trip id="bike101" type="bike_bicycle" depart="718.50" departLane="best" from="48863650" to="-3789252#1"/>
    <trip id="bike102" type="bike_bicycle" depart="725.62" departLane="best" from="24769545#1" to="-422732483#1"/>
    <trip id="bike104" type="bike_bicycle" depart="739.85" departLane="best" from="-94838278#1" to="8403822#0"/>
    <trip id="bike105" type="bike_bicycle" depart="746.96" departLane="best" from="-48985674#0" to="432565295#4"/>
    <trip id="bike106" type="bike_bicycle" depart="754.07" departLane="best" from="182856021" to="13871252#0"/>
    <trip id="bike107" type="bike_bicycle" depart="761.19" departLane="best" from="64270140" to="94838283#0"/>
    <trip id="bike108" type="bike_bicycle" depart="768.30" departLane="best" from="334138114#2" to="39178091#1"/>
    <trip id="bike109" type="bike_bicycle" depart="775.42" departLane="best" from="-372256216#4" to="-52324405"/>
    <trip id="bike110" type="bike_bicycle" depart="782.53" departLane="best" from="682430068#0" to="35060879#2"/>
    <trip id="bike111" type="bike_bicycle" depart="789.64" departLane="best" from="310196057#0" to="39994849#2"/>
    <trip id="bike112" type="bike_bicycle" depart="796.76" departLane="best" from="-261557478" to="35078314#1"/>
    <trip id="bike113" type="bike_bicycle" depart="803.87" departLane="best" from="27806076#2" to="48985672"/>
    <trip id="bike114" type="bike_bicycle" depart="810.98" departLane="best" from="-372256221" to="648631257#2"/>
    <trip id="bike115" type="bike_bicycle" depart="818.10" departLane="best" from="-292662750#0" to="-39178091#1"/>
    <trip id="bike116" type="bike_bicycle" depart="825.21" departLane="best" from="35078319#1" to="3789368#2"/>
    <trip id="bike117" type="bike_bicycle" depart="832.33" departLane="best" from="-442035816" to="-35078322#2"/>
    <trip id="bike118" type="bike_bicycle" depart="839.44" departLane="best" from="52324406" to="-461653745"/>
    <trip id="bike119" type="bike_bicycle" depart="846.55" departLane="best" from="35078319#1" to="361409608#2"/>
    <trip id="bike120" type="bike_bicycle" depart="853.67" departLane="best" from="13871198#1" to="35078314#1"/>
    <trip id="bike121" type="bike_bicycle" depart="860.78" departLane="best" from="292662751" to="6273610#0"/>
    <trip id="bike122" type="bike_bicycle" depart="867.90" departLane="best" from="-401912432#3" to="389939199"/>
    <trip id="bike123" type="bike_bicycle" depart="875.01" departLane="best" from="-442035824" to="128450676#1"/>
    <trip id="bike124" type="bike_bicycle" depart="882.12" departLane="best" from="3789251#5" to="-529166755"/>
    <trip id="bike125" type="bike_bicycle" depart="889.24" departLane="best" from="-55200269" to="401764333#0"/>
    <trip id="bike127" type="bike_bicycle" depart="903.47" departLane="best" from="94838283#3" to="94838283#0"/>
    <trip id="bike128" type="bike_bicycle" depart="910.58" departLane="best" from="-291344731#1" to="-422732483#0"/>
    <trip id="bike129" type="bike_bicycle" depart="917.69" departLane="best" from="-48985674#0" to="6273600#0"/>
    <trip id="bike130" type="bike_bicycle" depart="924.81" departLane="best" from="52321641#3" to="52321640#0"/>
    <trip id="bike131" type="bike_bicycle" depart="931.92" departLane="best" from="-80439756#1" to="-377671919"/>
    <trip id="bike132" type="bike_bicycle" depart="939.03" departLane="best" from="473472738#0" to="38358177"/>
    <trip id="bike133" type="bike_bicycle" depart="946.15" departLane="best" from="356866330" to="876578186"/>
    <trip id="bike134" type="bike_bicycle" depart="953.26" departLane="best" from="372256216#7" to="-127200696"/>
    <trip id="bike135" type="bike_bicycle" depart="960.38" departLane="best" from="440850338" to="-52375079#1"/>
    <trip id="bike136" type="bike_bicycle" depart="967.49" departLane="best" from="3789247#0" to="6273612#0"/>
    <trip id="bike137" type="bike_bicycle" depart="974.60" departLane="best" from="-360319695#0" to="-35078316#0"/>
    <trip id="bike138" type="bike_bicycle" depart="981.72" departLane="best" from="-35060878#3" to="334138114#1"/>
    <trip id="bike139" type="bike_bicycle" depart="988.83" departLane="best" from="-492437776" to="35081619#0"/>
    <trip id="bike140" type="bike_bicycle" depart="995.95" departLane="best" from="39178091#1" to="-401912432#3"/>
    <trip id="bike141" type="bike_bicycle" depart="1003.06" departLane="best" from="3708577" to="-48985674#0"/>
    <trip id="bike142" type="bike_bicycle" depart="1010.17" departLane="best" from="24807207#2" to="549289141#3"/>
    <trip id="bike143" type="bike_bicycle" depart="1017.29" departLane="best" from="48482641#1" to="-314537004"/>
    <trip id="bike144" type="bike_bicycle" depart="1024.40" departLane="best" from="13871252#1" to="-50014740"/>
    <trip id="bike145" type="bike_bicycle" depart="1031.52" departLane="best" from="-125814491#0" to="422732483#0"/>
    <trip id="bike146" type="bike_bicycle" depart="1038.63" departLane="best" from="3708643" to="-48985673#0"/>
    <trip id="bike147" type="bike_bicycle" depart="1045.74" departLane="best" from="39994845" to="317127411"/>
    <trip id="bike148" type="bike_bicycle" depart="1052.86" departLane="best" from="13907388" to="-128450676#0"/>
    <trip id="bike149" type="bike_bicycle" depart="1059.97" departLane="best" from="-291344731#3" to="52321641#1"/>
    <trip id="bike150" type="bike_bicycle" depart="1067.08" departLane="best" from="549289143" to="31028274"/>
    <trip id="bike151" type="bike_bicycle" depart="1074.20" departLane="best" from="473472738#1" to="35078311"/>
    <trip id="bike152" type="bike_bicycle" depart="1081.31" departLane="best" from="-3708578#3" to="-35081619#1"/>
    <trip id="bike153" type="bike_bicycle" depart="1088.43" departLane="best" from="-549289144" to="529166754"/>
    <trip id="bike154" type="bike_bicycle" depart="1095.54" departLane="best" from="4396159#1" to="4908185"/>
    <trip id="bike155" type="bike_bicycle" depart="1102.65" departLane="best" from="543369723" to="-41772644#1"/>
    <trip id="bike156" type="bike_bicycle" depart="1109.77" departLane="best" from="-461653888" to="-35060878#0"/>
    <trip id="bike157" type="bike_bicycle" depart="1116.88" departLane="best" from="432565295#3" to="52321641#3"/>
    <trip id="bike158" type="bike_bicycle" depart="1124.00" departLane="best" departSpeed="max" from="129212233#0" to="361409609"/>
    <trip id="bike159" type="bike_bicycle" depart="1131.11" departLane="best" from="-372256216#4" to="619879373"/>
    <trip id="bike160" type="bike_bicycle" depart="1138.22" departLane="best" from="49710026" to="75589202#0"/>
    <trip id="bike161" type="bike_bicycle" depart="1145.34" departLane="best" from="4401781#4" to="52321641#0"/>
    <trip id="bike162" type="bike_bicycle" depart="1152.45" departLane="best" from="-13871250" to="397464856#2"/>
    <trip id="bike163" type="bike_bicycle" depart="1159.57" departLane="best" from="-6273612#3" to="619879374#0"/>
    <trip id="bike164" type="bike_bicycle" depart="1166.68" departLane="best" from="4401603#4" to="4908199#2"/>
    <trip id="bike165" type="bike_bicycle" depart="1173.79" departLane="best" from="4401781#4" to="-48985679"/>
    <trip id="bike166" type="bike_bicycle" depart="1180.91" departLane="best" from="436633352" to="-35060879#0"/>
    <trip id="bike167" type="bike_bicycle" depart="1188.02" departLane="best" from="52321639#0" to="48985679"/>
    <trip id="bike168" type="bike_bicycle" depart="1195.14" departLane="best" from="-436633350#0" to="4408221"/>
    <trip id="bike169" type="bike_bicycle" depart="1202.25" departLane="best" from="18927706#4" to="-549289141#2"/>
    <trip id="bike170" type="bike_bicycle" depart="1209.36" departLane="best" from="4396159#0" to="-4396159#0"/>
    <trip id="bike171" type="bike_bicycle" depart="1216.48" departLane="best" from="-13871230#1" to="-39255350"/>
    <trip id="bike172" type="bike_bicycle" depart="1223.59" departLane="best" from="-6273600#1" to="4908204#1"/>
    <trip id="bike174" type="bike_bicycle" depart="1237.82" departLane="best" from="3708838#5" to="128450677#1"/>
    <trip id="bike175" type="bike_bicycle" depart="1244.93" departLane="best" from="80439756#1" to="31004181#3"/>
    <trip id="bike176" type="bike_bicycle" depart="1252.05" departLane="best" from="6273612#0" to="-35078316#0"/>
    <trip id="bike177" type="bike_bicycle" depart="1259.16" departLane="best" from="750249501" to="-383996050"/>
    <trip id="bike178" type="bike_bicycle" depart="1266.27" departLane="best" from="660472019" to="-48985674#1"/>
    <trip id="bike179" type="bike_bicycle" depart="1273.39" departLane="best" from="-35060878#4" to="14047796"/>
    <trip id="bike180" type="bike_bicycle" depart="1280.50" departLane="best" from="39255348#1" to="-550187800"/>
    <trip id="bike181" type="bike_bicycle" depart="1287.62" departLane="best" from="35081617#0" to="290556058#1"/>
    <trip id="bike182" type="bike_bicycle" depart="1294.73" departLane="best" from="125813720" to="35060878#4"/>
    <trip id="bike183" type="bike_bicycle" depart="1301.84" departLane="best" from="-473472741" to="38587899#0"/>
    <trip id="bike184" type="bike_bicycle" depart="1308.96" departLane="best" from="-125814461#0" to="585819384"/>
    <trip id="bike185" type="bike_bicycle" depart="1316.07" departLane="best" from="31004181#5" to="39178107#0"/>
    <trip id="bike186" type="bike_bicycle" depart="1323.19" departLane="best" from="39994845" to="3789251#5"/>
    <trip id="bike187" type="bike_bicycle" depart="1330.30" departLane="best" from="-75589202#1" to="-290556058#2"/>
    <trip id="bike188" type="bike_bicycle" depart="1337.41" departLane="best" from="3789247#1" to="-6273612#2"/>
    <trip id="bike189" type="bike_bicycle" depart="1344.53" departLane="best" from="-550187800" to="48461132"/>
    <trip id="bike190" type="bike_bicycle" depart="1351.64" departLane="best" from="39178107#1" to="-529166755"/>
    <trip id="bike191" type="bike_bicycle" depart="1358.75" departLane="best" from="-549289147" to="129774671#0"/>
    <trip id="bike192" type="bike_bicycle" depart="1365.87" departLane="best" from="12854626#0" to="-52321644#2"/>
    <trip id="bike193" type="bike_bicycle" depart="1372.98" departLane="best" from="-35081617#1" to="13871230#1"/>
    <trip id="bike194" type="bike_bicycle" depart="1380.10" departLane="best" from="6273612#1" to="3789368#5"/>
    <trip id="bike195" type="bike_bicycle" depart="1387.21" departLane="best" from="549289142" to="360319693"/>
    <trip id="bike196" type="bike_bicycle" depart="1394.32" departLane="best" from="-529166755" to="317027066#0"/>
    <trip id="bike197" type="bike_bicycle" depart="1401.44" departLane="best" from="-125813720" to="-52321641#0"/>
    <trip id="bike198" type="bike_bicycle" depart="1408.55" departLane="best" from="14047795#1" to="35060880"/>
    <trip id="bike199" type="bike_bicycle" depart="1415.67" departLane="best" from="372256221" to="229061163#0"/>
    <trip id="bike200" type="bike_bicycle" depart="1422.78" departLane="best" from="14401069#7" to="-422732483#1"/>
    <trip id="bike201" type="bike_bicycle" depart="1429.89" departLane="best" from="233075611#1" to="542636896"/>
    <trip id="bike202" type="bike_bicycle" depart="1437.01" departLane="best" from="4396159#1" to="-3789372#0"/>
    <trip id="bike203" type="bike_bicycle" depart="1444.12" departLane="best" from="-296747003#1" to="291344731#2"/>
    <trip id="bike204" type="bike_bicycle" depart="1451.24" departLane="best" from="3708465#4" to="-636824322#1"/>
    <trip id="bike205" type="bike_bicycle" depart="1458.35" departLane="best" from="442035815#0" to="401764331"/>
    <trip id="bike206" type="bike_bicycle" depart="1465.46" departLane="best" from="3789252#1" to="-4395994#1"/>
    <trip id="bike207" type="bike_bicycle" depart="1472.58" departLane="best" from="-401764333#0" to="-13871230#1"/>
    <trip id="bike208" type="bike_bicycle" depart="1479.69" departLane="best" from="-461653743" to="233674059"/>
    <trip id="bike209" type="bike_bicycle" depart="1486.80" departLane="best" from="48985673#1" to="-291344731#2"/>
    <trip id="bike210" type="bike_bicycle" depart="1493.92" departLane="best" from="135582944" to="3708465#4"/>
    <trip id="bike211" type="bike_bicycle" depart="1501.03" departLane="best" from="-39255350" to="3789575#0"/>
    <trip id="bike212" type="bike_bicycle" depart="1508.15" departLane="best" from="261557474#1" to="-461653743"/>
    <trip id="bike213" type="bike_bicycle" depart="1515.26" departLane="best" from="37721991#0" to="-125814598"/>
    <trip id="bike214" type="bike_bicycle" depart="1522.37" departLane="best" from="401764333#0" to="41772644#6"/>
    <trip id="bike215" type="bike_bicycle" depart="1529.49" departLane="best" from="-35060878#2" to="13871395"/>
    <trip id="bike216" type="bike_bicycle" depart="1536.60" departLane="best" from="-3789372#6" to="64270141"/>
    <trip id="bike217" type="bike_bicycle" depart="1543.72" departLane="best" from="291344732#1" to="-24231263"/>
    <trip id="bike218" type="bike_bicycle" depart="1550.83" departLane="best" from="-461653886" to="48482641#0"/>
    <trip id="bike219" type="bike_bicycle" depart="1557.94" departLane="best" departSpeed="max" from="18927706#0" to="4396159#1"/>
    <trip id="bike220" type="bike_bicycle" depart="1565.06" departLane="best" from="3789251#1" to="893972083"/>
    <trip id="bike221" type="bike_bicycle" depart="1572.17" departLane="best" from="35078319#1" to="64270035#1"/>
    <trip id="bike222" type="bike_bicycle" depart="1579.29" departLane="best" from="52375079#1" to="360313819#0"/>
    <trip id="bike223" type="bike_bicycle" depart="1586.40" departLane="best" from="39178107#0" to="283027965#0"/>
    <trip id="bike224" type="bike_bicycle" depart="1593.51" departLane="best" from="46055277" to="317027066#0"/>
    <trip id="bike225" type="bike_bicycle" depart="1600.63" departLane="best" from="542636896" to="39994846#0"/>
    <trip id="bike226" type="bike_bicycle" depart="1607.74" departLane="best" from="233674059" to="-48859797#0"/>
    <trip id="bike227" type="bike_bicycle" depart="1614.86" departLane="best" from="-461653745" to="3708838#5"/>
    <trip id="bike228" type="bike_bicycle" depart="1621.97" departLane="best" from="41772644#5" to="292662749#1"/>
    <trip id="bike229" type="bike_bicycle" depart="1629.08" departLane="best" from="370381577#1" to="-50013159"/>
    <trip id="bike230" type="bike_bicycle" depart="1636.20" departLane="best" from="-292662748" to="-52321640#2"/>
    <trip id="bike231" type="bike_bicycle" depart="1643.31" departLane="best" from="-4908204#1" to="-57936323"/>
    <trip id="bike232" type="bike_bicycle" depart="1650.42" departLane="best" from="31004181#8" to="-370381577#0"/>
    <trip id="bike233" type="bike_bicycle" depart="1657.54" departLane="best" from="-4401787" to="3789571#4"/>
    <trip id="bike234" type="bike_bicycle" depart="1664.65" departLane="best" from="384351845#1" to="-283027968"/>
    <trip id="bike235" type="bike_bicycle" depart="1671.77" departLane="best" from="129212233#1" to="310196057#0"/>
    <trip id="bike236" type="bike_bicycle" depart="1678.88" departLane="best" from="135582946#0" to="-41772641"/>
    <trip id="bike237" type="bike_bicycle" depart="1685.99" departLane="best" from="13871230#0" to="549289141#2"/>
    <trip id="bike238" type="bike_bicycle" depart="1693.11" departLane="best" from="35060880" to="3789575#0"/>
    <trip id="bike239" type="bike_bicycle" depart="1700.22" departLane="best" from="48985681" to="41772641"/>
    <trip id="bike240" type="bike_bicycle" depart="1707.34" departLane="best" from="-94838283#0" to="-125814738#1"/>
    <trip id="bike241" type="bike_bicycle" depart="1714.45" departLane="best" from="-648631257#2" to="401767522#0"/>
    <trip id="bike242" type="bike_bicycle" depart="1721.56" departLane="best" from="48985674#1" to="64270137#2"/>
    <trip id="bike243" type="bike_bicycle" depart="1728.68" departLane="best" from="13871198#1" to="39994849#1"/>
    <trip id="bike244" type="bike_bicycle" depart="1735.79" departLane="best" from="31028274" to="35081617#0"/>
    <trip id="bike245" type="bike_bicycle" depart="1742.91" departLane="best" from="-422732486" to="-422732486"/>
    <trip id="bike246" type="bike_bicycle" depart="1750.02" departLane="best" from="14331347" to="-14047795#3"/>
    <trip id="bike247" type="bike_bicycle" depart="1757.13" departLane="best" from="-636824322#1" to="3789372#0"/>
    <trip id="bike248" type="bike_bicycle" depart="1764.25" departLane="best" from="12854626#2" to="-3789251#4"/>
    <trip id="bike249" type="bike_bicycle" depart="1771.36" departLane="best" from="229119089#1" to="-35081619#1"/>
    <trip id="bike250" type="bike_bicycle" depart="1778.47" departLane="best" from="361409608#2" to="-14047795#1"/>
    <trip id="bike251" type="bike_bicycle" depart="1785.59" departLane="best" from="127200696" to="33920769#9"/>
    <trip id="bike252" type="bike_bicycle" depart="1792.70" departLane="best" from="-14047795#1" to="372245387#1"/>
    <trip id="bike253" type="bike_bicycle" depart="1799.82" departLane="best" from="-361409608#0" to="227983488"/>