<?xml version="1.0" encoding="UTF-8"?>

<!-- generated on 03/07/21 13:23:51 by Eclipse SUMO polyconvert Version 1.8.0
<configuration xmlns:xsi="http://www.w3.org/2001/XMLSchema-instance" xsi:noNamespaceSchemaLocation="http://sumo.dlr.de/xsd/polyconvertConfiguration.xsd">

    <input>
        <net-file value="osm.net.xml"/>
        <osm-files value="osm_bbox.osm.xml"/>
        <osm.keep-full-type value="true"/>
        <type-file value="C:\Program%20Files%20(x86)\Eclipse\Sumo\data\typemap\osmPolyconvert.typ.xml"/>
    </input>

    <output>
        <output-file value="osm.poly.xml"/>
    </output>

    <processing>
        <poi-layer-offset value="5"/>
    </processing>

    <report>
        <verbose value="true"/>
    </report>

</configuration>
-->

<additional xmlns:xsi="http://www.w3.org/2001/XMLSchema-instance" xsi:noNamespaceSchemaLocation="http://sumo.dlr.de/xsd/additional_file.xsd">
    <location netOffset="-680259.59,-5913893.86" convBoundary="-219.80,-1421.69,2693.60,2095.80" origBoundary="-6.295113,53.330084,-6.251432,53.361538" projParameter="+proj=utm +zone=29 +ellps=WGS84 +datum=WGS84 +units=m +no_defs"/>

    <poly id="104378037" type="building.yes" color="255,230,230" fill="1" layer="-1.00" shape="1722.814162,682.862306 1678.115877,669.644931 1674.793705,671.644946 1672.807736,681.213964 1641.886382,800.726892 1676.959723,818.832211 1710.439433,758.156750 1722.714089,735.917621 1707.831573,732.641020 1710.938429,724.083919 1716.503063,706.343429 1722.327211,685.483242 1722.814162,682.862306"/>
    <poly id="104378037#1" type="shop.department_store" color="237,199,255" fill="1" layer="-1.00" shape="1722.814162,682.862306 1678.115877,669.644931 1674.793705,671.644946 1672.807736,681.213964 1641.886382,800.726892 1676.959723,818.832211 1710.439433,758.156750 1722.714089,735.917621 1707.831573,732.641020 1710.938429,724.083919 1716.503063,706.343429 1722.327211,685.483242 1722.814162,682.862306"/>
    <poly id="127227986" type="building.apartments" color="255,230,230" fill="1" layer="-1.00" shape="967.907707,227.358743 969.231789,174.829566 946.250110,173.451727 950.336796,127.120095 995.531896,128.187113 988.108588,176.886210 985.701990,228.260353 967.907707,227.358743"/>
    <poly id="127227989" type="amenity.parking" color="184,184,179" fill="1" layer="-1.00" shape="917.903270,231.487874 906.541267,186.003792 952.386715,175.946694 958.200169,205.782806 958.455992,221.440617 917.903270,231.487874"/>
    <poly id="127227989#1" type="building.yes" color="255,230,230" fill="1" layer="-1.00" shape="917.903270,231.487874 906.541267,186.003792 952.386715,175.946694 958.200169,205.782806 958.455992,221.440617 917.903270,231.487874"/>
    <poly id="127227990" type="building.apartments" color="255,230,230" fill="1" layer="-1.00" shape="855.689594,171.089766 865.092435,203.468250 886.374822,197.318854 892.219027,217.444228 870.667117,223.672415 879.315811,253.449451 888.918259,286.526136 919.149934,277.789039 915.521149,265.288129 899.172096,270.010585 893.251242,249.626112 888.031126,231.662911 907.709545,225.975912 895.414193,183.641565 874.987555,189.545117 868.547792,167.381197 855.689594,171.089766"/>
    <poly id="127227994" type="building.apartments" color="255,230,230" fill="1" layer="-1.00" shape="800.934310,180.596585 800.144572,140.460778 788.565440,140.687728 789.355699,180.812410 800.934310,180.596585"/>
    <poly id="127227996" type="building.roof" color="255,230,230" fill="1" layer="-1.00" shape="940.352249,272.160304 957.040784,267.974395 951.570681,246.437602 934.700003,251.028671 940.352249,272.160304"/>
    <poly id="127227997" type="building.apartments" color="255,230,230" fill="1" layer="-1.00" shape="777.948251,215.538384 813.918397,205.582571 817.194862,217.368300 781.224794,227.324086 777.948251,215.538384"/>
    <poly id="127228000" type="building.apartments" color="255,230,230" fill="1" layer="-1.00" shape="750.975692,204.509213 756.162206,234.387943 775.665330,231.021441 773.469250,218.341378 765.928150,219.646655 762.944461,202.448224 750.975692,204.509213"/>
    <poly id="127228001" type="building.apartments" color="255,230,230" fill="1" layer="-1.00" shape="831.948656,179.139175 840.846308,210.262095 820.821001,215.958422 817.928132,205.824507 829.456887,202.544074 823.459113,181.544225 831.948656,179.139175"/>
    <poly id="127228002" type="building.apartments" color="255,230,230" fill="1" layer="-1.00" shape="751.894447,197.538811 751.850185,175.785831 783.410953,175.729959 783.437447,187.102233 762.321698,187.132875 762.338944,197.524705 751.894447,197.538811"/>
    <poly id="129662893" type="landuse.grass" color="194,194,130" fill="1" layer="-3.00" shape="575.395416,216.232413 594.256706,273.138376 616.973961,268.668496 622.787760,260.737316 618.680085,207.054772 616.508566,202.996056 613.557973,201.369034 609.919898,200.818438 575.395416,216.232413"/>
    <poly id="129774673" type="amenity.courthouse" color="237,199,199" fill="1" layer="-1.00" shape="1016.134696,563.566283 1052.497063,564.586585 1052.739966,555.953216 1016.377533,554.932913 1016.134696,563.566283"/>
    <poly id="129774673#1" type="building.yes" color="255,230,230" fill="1" layer="-1.00" shape="1016.134696,563.566283 1052.497063,564.586585 1052.739966,555.953216 1016.377533,554.932913 1016.134696,563.566283"/>
    <poly id="129774680" type="amenity.courthouse" color="237,199,199" fill="1" layer="-1.00" shape="910.213419,439.931752 972.590561,421.862890 965.112759,396.184309 902.735324,414.253275 910.213419,439.931752"/>
    <poly id="129774680#1" type="building.yes" color="255,230,230" fill="1" layer="-1.00" shape="910.213419,439.931752 972.590561,421.862890 965.112759,396.184309 902.735324,414.253275 910.213419,439.931752"/>
    <poly id="131248600" type="amenity.courthouse" color="237,199,199" fill="1" layer="-1.00" shape="1247.522725,434.220048 1249.860870,454.134049 1205.415795,459.330052 1203.070816,439.415822 1247.522725,434.220048"/>
    <poly id="131248600#1" type="building.yes" color="255,230,230" fill="1" layer="-1.00" shape="1247.522725,434.220048 1249.860870,454.134049 1205.415795,459.330052 1203.070816,439.415822 1247.522725,434.220048"/>
    <poly id="131248846" type="leisure.park" color="207,245,201" fill="1" layer="-2.00" shape="1303.290054,1061.040436 1299.151063,1008.068327 1223.368562,1005.127360 1224.369371,1012.070827 1227.450339,1033.461106 1237.442667,1102.950905 1243.893715,1197.264466 1257.456400,1230.504715 1372.864014,1180.120828 1369.180936,1170.836094 1357.729869,1141.986452 1307.870340,1144.646343 1303.290054,1061.040436"/>
    <poly id="135582843" type="landuse.residential" color="235,235,227" fill="1" layer="-3.00" shape="1211.237828,745.662353 1284.126687,746.654599 1295.250835,664.495520 1222.963846,655.217637 1211.237828,745.662353"/>
    <poly id="13871365" type="amenity.parking" color="184,184,179" fill="1" layer="-1.00" shape="903.847079,713.089952 905.101492,725.979228 907.287310,726.329897 925.601841,729.267107 929.163314,723.778572 927.583884,698.970996 926.691362,684.981775 905.889415,709.514780 903.847079,713.089952"/>
    <poly id="13871512" type="building.public" color="255,230,230" fill="1" layer="-1.00" shape="1232.192366,366.753936 1226.822440,367.228160 1227.862933,378.895404 1209.024779,380.559138 1208.834767,378.380078 1199.592900,379.196467 1201.078614,395.959383 1210.320449,395.142997 1210.161730,393.366080 1228.999410,391.713473 1229.949558,402.430585 1244.353699,401.165527 1243.397352,390.437037 1262.576595,388.741925 1261.439781,375.934967 1242.260489,377.630085 1241.226685,365.963091 1235.823481,366.436033 1235.412897,361.831718 1235.239743,359.909462 1247.932243,358.790624 1247.768580,356.968966 1259.544673,355.937655 1260.428675,355.303187 1260.972563,354.499799 1260.974423,353.230201 1260.758221,352.085920 1260.099240,351.192018 1259.084133,350.897068 1257.659802,351.020841 1257.235220,346.260065 1259.769395,346.045050 1259.378651,341.619690 1288.903254,339.016912 1302.425312,337.818544 1298.497387,293.586379 1282.494667,294.990676 1285.177948,325.231163 1255.599598,327.843052 1252.925196,297.714306 1240.814505,298.777408 1240.688779,297.358149 1221.295371,299.067463 1221.421102,300.486722 1209.250109,301.558737 1211.931012,331.698828 1183.336167,334.215083 1180.665424,304.153369 1164.656143,305.557807 1165.368995,313.592847 1168.571264,349.633376 1210.661382,345.917389 1211.058825,350.342999 1213.566799,350.115822 1214.432046,359.916413 1228.321742,358.687334 1228.485413,360.508990 1231.608623,360.227366 1231.786734,362.194361 1232.192366,366.753936"/>
    <poly id="14327271" type="historic.yes" color="128,255,128" fill="0" layer="-1.00" shape="762.217878,331.179763 748.257780,252.051344 746.750917,243.496112"/>
    <poly id="14327272" type="historic.yes" color="128,255,128" fill="0" layer="-1.00" shape="746.750917,243.496112 743.949698,202.615452 743.207033,189.745763 739.814596,130.967106 739.470191,124.962078 736.570382,74.766842 731.067555,14.515643 729.755927,0.131883"/>
    <poly id="14401686" type="leisure.park" color="207,245,201" fill="1" layer="-2.00" shape="434.958197,431.084847 428.133871,429.678116 300.455830,431.037889 230.889339,431.791001 223.467821,432.244080 186.988576,435.513599 186.657029,441.258990 188.420706,502.725941 434.074714,496.884040 437.883174,497.329623 434.958197,431.084847"/>
    <poly id="147075690" type="historic.yes" color="128,255,128" fill="0" layer="-1.00" shape="1633.696811,809.234166 1588.303421,787.916265 1586.358976,787.006507"/>
    <poly id="147075696" type="historic.yes" color="128,255,128" fill="0" layer="-1.00" shape="1452.606710,887.548911 1451.093807,891.210950 1446.588334,896.451397 1437.463116,905.390959"/>
    <poly id="153254211" type="leisure.park" color="207,245,201" fill="1" layer="-2.00" shape="1328.006469,387.990489 1306.595628,384.075865 1304.012270,398.132830 1301.072903,414.180932 1322.483610,418.095535 1325.303521,402.733398 1328.006469,387.990489"/>
    <poly id="179792545" type="waterway.stream" color="181,209,209" fill="0" layer="-4.00" shape="1779.483924,297.069344 1770.703696,323.050847"/>
    <poly id="182856015" type="building.public" color="255,230,230" fill="1" layer="-1.00" shape="1119.337491,361.530275 1124.822203,426.470445 1141.316874,425.084433 1141.693978,429.520395 1150.399512,428.783654 1149.980784,423.867192 1154.179643,423.515224 1153.904364,420.252580 1153.202143,411.939510 1148.762022,359.446279 1141.554316,360.050891 1141.302527,357.045307 1129.895905,358.001917 1130.115553,360.627601 1119.337491,361.530275"/>
    <poly id="190407588" type="building.office" color="255,230,230" fill="1" layer="-1.00" shape="1066.720311,894.485606 1080.806215,895.580267 1080.952162,893.503139 1095.222405,894.482369 1095.083107,896.559751 1106.621394,897.356739 1107.050065,891.191829 1101.693057,890.820207 1102.524762,878.812394 1097.938794,878.492494 1098.545400,869.761631 1075.907027,868.206736 1075.313910,876.759916 1071.651618,876.508719 1071.055961,885.128627 1073.389080,885.284527 1073.196849,888.050409 1067.307917,887.647380 1066.720311,894.485606"/>
    <poly id="190407902" type="building.yes" color="255,230,230" fill="1" layer="-1.00" shape="1219.104223,969.536161 1219.934845,963.319787 1224.699420,962.800188 1225.846812,954.223640 1236.428713,955.630379 1235.496398,962.589076 1238.818262,963.027868 1237.622277,972.003506 1219.104223,969.536161"/>
    <poly id="200748065" type="landuse.residential" color="235,235,227" fill="1" layer="-3.00" shape="1226.390497,553.496586 1229.756691,553.480413 1248.308795,476.962202 1222.793505,473.904609 1211.419986,474.349951 1206.903986,476.026245 1205.975227,483.241240 1205.620533,483.628638 1204.395105,496.167136 1199.213794,495.545981 1196.071749,515.339702 1173.944533,512.745910 1148.692209,509.787849 1148.756358,511.249303 1150.097086,541.059738 1151.834854,544.768048 1226.390497,553.496586"/>
    <poly id="220351577" type="building.yes" color="255,230,230" fill="1" layer="-1.00" shape="994.528773,214.396928 993.250195,206.507409 994.302502,182.245734 1003.992070,129.701606 1007.990814,126.390446 1028.197003,127.673794 1031.807480,127.900671 1038.725036,137.876480 1049.550644,199.133325 1032.976419,201.886564 1020.394722,144.026494 1015.976059,142.098175 1009.478768,180.497069 1011.495347,181.097474 1008.244471,209.351552 1000.071331,214.641814 994.528773,214.396928"/>
    <poly id="227925244" type="building.residential" color="255,230,230" fill="1" layer="-1.00" shape="824.973135,610.725553 807.548783,612.745421 809.922457,632.994586 815.336863,679.242975 820.047271,674.555507 829.390321,666.347045 839.021224,659.853596 849.778552,654.405481 858.556377,651.410097 861.604563,650.468275 866.520683,648.951715 873.615715,647.618487 881.996533,646.646150 887.164067,646.575923 891.418671,647.027755 889.438875,630.090221 880.955661,631.125466 864.336268,633.008760 864.783500,636.834805 860.070628,637.390164 855.806588,637.884680 854.584296,627.469156 856.431589,627.261158 854.001244,605.706722 824.779319,608.991868 824.973135,610.725553"/>
    <poly id="227926416" type="building.residential" color="255,230,230" fill="1" layer="-1.00" shape="826.851534,650.256954 823.611399,621.621697 837.961299,620.008129 840.235148,640.075312 836.186183,640.522359 836.455220,642.904882 834.300125,643.145701 835.003955,649.331515 826.851534,650.256954"/>
    <poly id="227983140" type="building.residential" color="255,230,230" fill="1" layer="-1.00" shape="876.002105,511.287470 858.358599,513.276543 859.804662,526.039451 855.146194,526.563483 855.830194,532.570345 860.488657,532.046314 865.739257,578.388764 861.823755,578.829743 862.402757,583.919337 866.318255,583.478358 867.714673,595.793884 884.962710,593.856606 877.183984,525.209738 877.572084,525.168851 876.002105,511.287470"/>
    <poly id="228762029" type="building.yes" color="255,230,230" fill="1" layer="-1.00" shape="1606.414559,361.686996 1604.855555,368.287533 1615.686133,370.718075 1617.060671,363.887728 1606.414559,361.686996"/>
    <poly id="228762029#1" type="shop.vacant" color="237,199,255" fill="1" layer="-1.00" shape="1606.414559,361.686996 1604.855555,368.287533 1615.686133,370.718075 1617.060671,363.887728 1606.414559,361.686996"/>
    <poly id="228762030" type="amenity.fast_food" color="237,199,199" fill="1" layer="-1.00" shape="1590.996611,422.330699 1589.669534,427.748406 1600.505312,430.735996 1601.963954,425.189678 1590.996611,422.330699"/>
    <poly id="228762030#1" type="building.yes" color="255,230,230" fill="1" layer="-1.00" shape="1590.996611,422.330699 1589.669534,427.748406 1600.505312,430.735996 1601.963954,425.189678 1590.996611,422.330699"/>
    <poly id="228762031" type="building.yes" color="255,230,230" fill="1" layer="-1.00" shape="1589.669534,427.748406 1588.145634,433.258817 1600.643123,436.710971 1602.167037,431.200564 1600.505312,430.735996 1589.669534,427.748406"/>
    <poly id="228762031#1" type="shop.clothes" color="237,199,255" fill="1" layer="-1.00" shape="1589.669534,427.748406 1588.145634,433.258817 1600.643123,436.710971 1602.167037,431.200564 1600.505312,430.735996 1589.669534,427.748406"/>
    <poly id="228762032" type="amenity.restaurant" color="237,199,199" fill="1" layer="-1.00" shape="1588.145634,433.258817 1586.758825,438.496038 1598.826283,441.864901 1600.553703,442.354259 1602.026616,437.131475 1600.643123,436.710971 1588.145634,433.258817"/>
    <poly id="228762032#1" type="building.yes" color="255,230,230" fill="1" layer="-1.00" shape="1588.145634,433.258817 1586.758825,438.496038 1598.826283,441.864901 1600.553703,442.354259 1602.026616,437.131475 1600.643123,436.710971 1588.145634,433.258817"/>
    <poly id="228762033" type="building.yes" color="255,230,230" fill="1" layer="-1.00" shape="1586.758825,438.496038 1585.362382,443.810853 1597.387075,447.077838 1598.826283,441.864901 1586.758825,438.496038"/>
    <poly id="228762033#1" type="shop.hobby" color="237,199,255" fill="1" layer="-1.00" shape="1586.758825,438.496038 1585.362382,443.810853 1597.387075,447.077838 1598.826283,441.864901 1586.758825,438.496038"/>
    <poly id="228762034" type="building.yes" color="255,230,230" fill="1" layer="-1.00" shape="1585.362382,443.810853 1583.943580,449.013438 1595.914863,452.456575 1597.387075,447.077838 1585.362382,443.810853"/>
    <poly id="228762035" type="building.yes" color="255,230,230" fill="1" layer="-1.00" shape="1582.545485,453.849278 1580.869768,459.843928 1591.849329,462.903831 1593.435285,463.432321 1595.389450,456.780085 1589.509444,455.084831 1589.302513,455.789709 1582.545485,453.849278"/>
    <poly id="228762036" type="building.yes" color="255,230,230" fill="1" layer="-1.00" shape="1580.869768,459.843928 1579.402687,465.089215 1589.135951,467.800692 1590.382236,468.149115 1591.849329,462.903831 1580.869768,459.843928"/>
    <poly id="228762037" type="building.yes" color="255,230,230" fill="1" layer="-1.00" shape="1579.402687,465.089215 1577.831057,470.976475 1587.542799,473.553476 1589.135951,467.800692 1579.402687,465.089215"/>
    <poly id="228762037#1" type="shop.hairdresser" color="237,199,255" fill="1" layer="-1.00" shape="1579.402687,465.089215 1577.831057,470.976475 1587.542799,473.553476 1589.135951,467.800692 1579.402687,465.089215"/>
    <poly id="228762038" type="building.yes" color="255,230,230" fill="1" layer="-1.00" shape="1577.831057,470.976475 1576.539182,475.649321 1586.274128,478.316307 1587.542799,473.553476 1577.831057,470.976475"/>
    <poly id="228762038#1" type="shop.clothes" color="237,199,255" fill="1" layer="-1.00" shape="1577.831057,470.976475 1576.539182,475.649321 1586.274128,478.316307 1587.542799,473.553476 1577.831057,470.976475"/>
    <poly id="228762039" type="building.yes" color="255,230,230" fill="1" layer="-1.00" shape="1604.855555,368.287533 1603.407496,374.079281 1614.357269,376.703722 1615.686133,370.718075 1604.855555,368.287533"/>
    <poly id="228762040" type="amenity.fast_food" color="237,199,199" fill="1" layer="-1.00" shape="1576.539182,475.649321 1574.967715,481.358388 1586.753591,484.593935 1588.325497,478.873750 1586.274128,478.316307 1576.539182,475.649321"/>
    <poly id="228762040#1" type="building.yes" color="255,230,230" fill="1" layer="-1.00" shape="1576.539182,475.649321 1574.967715,481.358388 1586.753591,484.593935 1588.325497,478.873750 1586.274128,478.316307 1576.539182,475.649321"/>
    <poly id="228762041" type="building.yes" color="255,230,230" fill="1" layer="-1.00" shape="1603.407496,374.079281 1601.998519,379.894800 1613.097245,382.458117 1614.357269,376.703722 1603.407496,374.079281"/>
    <poly id="228762041#1" type="shop.hairdresser" color="237,199,255" fill="1" layer="-1.00" shape="1603.407496,374.079281 1601.998519,379.894800 1613.097245,382.458117 1614.357269,376.703722 1603.407496,374.079281"/>
    <poly id="228762042" type="building.yes" color="255,230,230" fill="1" layer="-1.00" shape="1601.998519,379.894800 1600.471838,386.173589 1611.716108,388.764749 1613.097245,382.458117 1601.998519,379.894800"/>
    <poly id="228762042#1" type="shop.second_hand" color="237,199,255" fill="1" layer="-1.00" shape="1601.998519,379.894800 1600.471838,386.173589 1611.716108,388.764749 1613.097245,382.458117 1601.998519,379.894800"/>
    <poly id="228762043" type="building.yes" color="255,230,230" fill="1" layer="-1.00" shape="1599.031988,392.099302 1597.686478,397.649952 1608.323097,400.618793 1609.877574,393.962396 1608.954607,394.394834 1599.031988,392.099302"/>
    <poly id="228762043#1" type="shop.yes" color="237,199,255" fill="1" layer="-1.00" shape="1599.031988,392.099302 1597.686478,397.649952 1608.323097,400.618793 1609.877574,393.962396 1608.954607,394.394834 1599.031988,392.099302"/>
    <poly id="228762044" type="amenity.bar" color="237,199,199" fill="1" layer="-1.00" shape="1592.760030,415.960734 1605.727938,419.486595 1618.571356,423.130239 1620.150553,417.221003 1623.046972,417.989016 1623.824036,415.100744 1597.160293,407.564454 1594.805719,408.833089 1592.760030,415.960734"/>
    <poly id="228762044#1" type="building.yes" color="255,230,230" fill="1" layer="-1.00" shape="1592.760030,415.960734 1605.727938,419.486595 1618.571356,423.130239 1620.150553,417.221003 1623.046972,417.989016 1623.824036,415.100744 1597.160293,407.564454 1594.805719,408.833089 1592.760030,415.960734"/>
    <poly id="228762045" type="building.yes" color="255,230,230" fill="1" layer="-1.00" shape="1592.760030,415.960734 1590.996611,422.330699 1601.963954,425.189678 1603.885920,425.820135 1605.727938,419.486595 1592.760030,415.960734"/>
    <poly id="228762045#1" type="shop.musical_instrument" color="237,199,255" fill="1" layer="-1.00" shape="1592.760030,415.960734 1590.996611,422.330699 1601.963954,425.189678 1603.885920,425.820135 1605.727938,419.486595 1592.760030,415.960734"/>
    <poly id="228762046" type="amenity.pub" color="237,199,199" fill="1" layer="-1.00" shape="1586.402438,384.955593 1584.007919,394.754025 1573.865406,392.283065 1576.259905,382.484629 1577.619775,382.826258 1586.402438,384.955593"/>
    <poly id="228762046#1" type="building.yes" color="255,230,230" fill="1" layer="-1.00" shape="1586.402438,384.955593 1584.007919,394.754025 1573.865406,392.283065 1576.259905,382.484629 1577.619775,382.826258 1586.402438,384.955593"/>
    <poly id="228762047" type="amenity.restaurant" color="237,199,199" fill="1" layer="-1.00" shape="1583.943580,449.013438 1582.545485,453.849278 1589.302513,455.789709 1589.509444,455.084831 1595.389450,456.780085 1596.587281,452.649380 1595.914863,452.456575 1583.943580,449.013438"/>
    <poly id="228762047#1" type="building.yes" color="255,230,230" fill="1" layer="-1.00" shape="1583.943580,449.013438 1582.545485,453.849278 1589.302513,455.789709 1589.509444,455.084831 1595.389450,456.780085 1596.587281,452.649380 1595.914863,452.456575 1583.943580,449.013438"/>
    <poly id="228762048" type="building.yes" color="255,230,230" fill="1" layer="-1.00" shape="1600.471838,386.173589 1599.031988,392.099302 1608.954607,394.394834 1609.877574,393.962396 1611.905322,393.048793 1612.911727,389.044413 1611.716108,388.764749 1600.471838,386.173589"/>
    <poly id="228762048#1" type="shop.pet" color="237,199,255" fill="1" layer="-1.00" shape="1600.471838,386.173589 1599.031988,392.099302 1608.954607,394.394834 1609.877574,393.962396 1611.905322,393.048793 1612.911727,389.044413 1611.716108,388.764749 1600.471838,386.173589"/>
    <poly id="228762049" type="amenity.parking" color="184,184,179" fill="1" layer="-1.00" shape="1718.728613,468.030134 1704.603961,464.259166 1695.262899,462.097074 1691.874445,474.697457 1675.138567,470.369918 1673.059228,478.721373 1664.940826,476.828918 1657.074360,505.251281 1685.647942,513.195223 1687.223749,506.506250 1690.719043,491.637905 1691.116963,489.949108 1694.195748,487.694749 1706.603857,490.865333 1712.418676,492.346626 1713.278952,489.027190 1718.728613,468.030134"/>
    <poly id="228762049#1" type="building.parking" color="255,230,230" fill="1" layer="-1.00" shape="1718.728613,468.030134 1704.603961,464.259166 1695.262899,462.097074 1691.874445,474.697457 1675.138567,470.369918 1673.059228,478.721373 1664.940826,476.828918 1657.074360,505.251281 1685.647942,513.195223 1687.223749,506.506250 1690.719043,491.637905 1691.116963,489.949108 1694.195748,487.694749 1706.603857,490.865333 1712.418676,492.346626 1713.278952,489.027190 1718.728613,468.030134"/>
    <poly id="228762050" type="building.yes" color="255,230,230" fill="1" layer="-1.00" shape="1578.832120,377.793968 1577.619775,382.826258 1586.402438,384.955593 1587.628953,379.901573 1578.832120,377.793968"/>
    <poly id="228762050#1" type="shop.yes" color="237,199,255" fill="1" layer="-1.00" shape="1578.832120,377.793968 1577.619775,382.826258 1586.402438,384.955593 1587.628953,379.901573 1578.832120,377.793968"/>
    <poly id="228762051" type="building.retail" color="255,230,230" fill="1" layer="-1.00" shape="1685.647942,513.195223 1702.719223,517.635894 1705.594722,516.164519 1706.994152,511.818810 1687.223749,506.506250 1685.647942,513.195223"/>
    <poly id="228762052" type="amenity.fast_food" color="237,199,199" fill="1" layer="-1.00" shape="1578.558218,373.283936 1577.574898,377.556506 1578.832120,377.793968 1587.628953,379.901573 1588.600249,375.595132 1578.558218,373.283936"/>
    <poly id="228762052#1" type="building.yes" color="255,230,230" fill="1" layer="-1.00" shape="1578.558218,373.283936 1577.574898,377.556506 1578.832120,377.793968 1587.628953,379.901573 1588.600249,375.595132 1578.558218,373.283936"/>
    <poly id="228762053" type="building.yes" color="255,230,230" fill="1" layer="-1.00" shape="1687.223749,506.506250 1706.994152,511.818810 1712.418676,492.346626 1706.603857,490.865333 1705.236523,495.590947 1690.719043,491.637905 1687.223749,506.506250"/>
    <poly id="228762054" type="building.yes" color="255,230,230" fill="1" layer="-1.00" shape="1702.845898,437.428379 1700.923192,444.995062 1709.122293,447.391855 1723.246993,451.162836 1723.607128,449.416905 1719.217233,442.053894 1702.845898,437.428379"/>
    <poly id="228762055" type="building.yes" color="255,230,230" fill="1" layer="-1.00" shape="1718.728613,468.030134 1723.246993,451.162836 1709.122293,447.391855 1707.745840,452.529208 1706.334036,452.152138 1704.412502,459.340189 1705.824730,459.706137 1704.603961,464.259166 1718.728613,468.030134"/>
    <poly id="228762056" type="building.yes" color="255,230,230" fill="1" layer="-1.00" shape="1576.072212,362.663844 1574.024778,372.275091 1576.370720,372.799252 1578.558218,373.283936 1588.600249,375.595132 1590.616231,368.199047 1590.659231,367.075806 1590.496730,366.445886 1590.087566,365.817660 1589.096544,365.590386 1576.072212,362.663844"/>
    <poly id="228762685" type="amenity.police" color="237,199,199" fill="1" layer="-1.00" shape="1147.336527,449.304348 1150.258978,464.050546 1192.160046,456.184107 1192.452567,460.215897 1191.624941,463.213667 1191.785358,465.993018 1193.521153,467.484916 1196.665954,467.159548 1198.427531,465.533949 1199.770844,463.168439 1200.130799,458.281714 1200.121333,453.993437 1197.628056,439.530894 1147.336527,449.304348"/>
    <poly id="228762685#1" type="building.yes" color="255,230,230" fill="1" layer="-1.00" shape="1147.336527,449.304348 1150.258978,464.050546 1192.160046,456.184107 1192.452567,460.215897 1191.624941,463.213667 1191.785358,465.993018 1193.521153,467.484916 1196.665954,467.159548 1198.427531,465.533949 1199.770844,463.168439 1200.130799,458.281714 1200.121333,453.993437 1197.628056,439.530894 1147.336527,449.304348"/>
    <poly id="228762687" type="building.apartments" color="255,230,230" fill="1" layer="-1.00" shape="1265.457436,479.911811 1250.137016,548.590182 1252.153411,549.190693 1253.124143,550.296983 1253.135164,551.578211 1255.337322,552.375159 1269.248515,553.708667 1269.851728,545.423179 1259.649498,544.520977 1273.751104,481.754588 1265.457436,479.911811"/>
    <poly id="228762688" type="building.apartments" color="255,230,230" fill="1" layer="-1.00" shape="1240.651217,480.623401 1233.104868,478.931748 1220.067062,536.894080 1227.613322,538.585713 1240.651217,480.623401"/>
    <poly id="228762689" type="building.yes" color="255,230,230" fill="1" layer="-1.00" shape="1155.337026,515.365316 1162.159955,523.956704 1167.094438,520.046593 1160.278165,511.455452 1155.337026,515.365316"/>
    <poly id="228762690" type="building.apartments" color="255,230,230" fill="1" layer="-1.00" shape="1151.964082,532.833650 1150.965045,541.716583 1220.503171,549.551744 1221.502763,540.657702 1155.540836,533.237550 1151.964082,532.833650"/>
    <poly id="228762691" type="building.yes" color="255,230,230" fill="1" layer="-1.00" shape="1215.424753,465.470479 1214.783290,470.747397 1242.652167,474.128761 1243.300316,468.852101 1215.424753,465.470479"/>
    <poly id="228762692" type="building.yes" color="255,230,230" fill="1" layer="-1.00" shape="1170.027095,514.979695 1170.051875,519.391068 1172.284644,519.387249 1172.260291,514.964755 1170.027095,514.979695"/>
    <poly id="228762915" type="building.yes" color="255,230,230" fill="1" layer="-1.00" shape="1716.208987,384.357708 1712.467435,399.561869 1717.750127,400.844578 1714.454593,413.626709 1704.480414,410.939163 1700.628437,426.417539 1722.435371,432.509818 1733.301921,387.897152 1716.208987,384.357708"/>
    <poly id="228762915#1" type="tourism.hotel" color="207,245,201" fill="1" layer="-2.00" shape="1716.208987,384.357708 1712.467435,399.561869 1717.750127,400.844578 1714.454593,413.626709 1704.480414,410.939163 1700.628437,426.417539 1722.435371,432.509818 1733.301921,387.897152 1716.208987,384.357708"/>
    <poly id="228763220" type="building.apartments" color="255,230,230" fill="1" layer="-1.00" shape="1777.914707,461.153996 1769.811668,490.513837 1792.189273,496.661739 1800.292445,467.301934 1777.914707,461.153996"/>
    <poly id="229049442" type="building.yes" color="255,230,230" fill="1" layer="-1.00" shape="1682.819359,431.660545 1679.654322,443.300529 1673.228874,469.071651 1683.268800,471.605731 1684.132466,468.197321 1686.951116,468.906708 1693.756937,442.080969 1696.700768,442.828569 1698.375577,436.165666 1682.819359,431.660545"/>
    <poly id="229049443" type="building.apartments" color="255,230,230" fill="1" layer="-1.00" shape="1623.824036,415.100744 1648.055010,421.942600 1645.963725,429.736732 1644.546398,435.073009 1621.376405,428.895490 1622.628829,424.210006 1618.571356,423.130239 1620.150553,417.221003 1623.046972,417.989016 1623.824036,415.100744"/>
    <poly id="229049444" type="building.yes" color="255,230,230" fill="1" layer="-1.00" shape="1648.055010,421.942600 1665.384866,426.949892 1663.359997,434.401299 1645.963725,429.736732 1648.055010,421.942600"/>
    <poly id="229049445" type="building.yes" color="255,230,230" fill="1" layer="-1.00" shape="1682.819359,431.660545 1665.384866,426.949892 1663.359997,434.401299 1662.219869,438.589887 1679.654322,443.300529 1682.819359,431.660545"/>