<?xml version="1.0" encoding="UTF-8"?>

<!-- generated on 03/07/21 13:23:53 by Eclipse SUMO duarouter Version 1.8.0
<configuration xmlns:xsi="http://www.w3.org/2001/XMLSchema-instance" xsi:noNamespaceSchemaLocation="http://sumo.dlr.de/xsd/duarouterConfiguration.xsd">

    <input>
        <net-file value="C:\Program%20Files%20(x86)\Eclipse\Sumo\tools\2021-03-07-13-23-46\osm.net.xml"/>
        <route-files value="C:\Program%20Files%20(x86)\Eclipse\Sumo\tools\2021-03-07-13-23-46\osm.passenger.trips.xml"/>
    </input>

    <output>
        <output-file value="C:\Program Files (x86)\Eclipse\Sumo\tools\_Simulation_Scenarios\North Dublin Section\osm.passenger.trips.out.xml"/>
        <write-trips value="true"/>
    </output>

    <time>
        <begin value="0"/>
        <end value="3600"/>
    </time>

    <report>
        <no-warnings value="true"/>
        <ignore-errors value="true"/>
        <no-step-log value="true"/>
    </report>

</configuration>
-->

<routes xmlns:xsi="http://www.w3.org/2001/XMLSchema-instance" xsi:noNamespaceSchemaLocation="http://sumo.dlr.de/xsd/routes_file.xsd">

    <vType id="CAV4" vClass="passenger" speedDev="0.05" carFollowModel="IDM" minGap="1" tau="0.5" sigma="0.05" probability="0.05">
        <param key="has.ssm.device" value="true"/>
        <param key="device.ssm.file" value="ssm_north_CAV4.xml" />
        <param key="device.ssm.probability" value="1"/>
        <param key="device.ssm.deterministic" value="True"/>
        <param key="device.ssm.measures" value="TTC PET"/>
        <param key="device.ssm.thresholds"  value="1.5 2"/>
        <param key="device.ssm.range" value="20"/>
        <param key="device.ssm.extratime" value="0.5"/>
        <param key="device.ssm.trajectories" value="False"/>
        <param key="device.ssm.geo" value="True"/>
        <param key="has.tripinfo.device" value="true"/>
        <param key="device.tripinfo.probability" value="true"/>
    </vType>
	<vType id="CAV2" vClass="passenger" speedDev="0.05" carFollowModel="IDM" minGap="1.5" tau="0.8" sigma="0.05" lcStrategic="0.5" probability="0.05">
        <param key="has.ssm.device" value="true"/>
        <param key="device.ssm.file" value="ssm_north_CAV2.xml" />
        <param key="device.ssm.probability" value="1"/>
        <param key="device.ssm.deterministic" value="True"/>
        <param key="device.ssm.measures" value="TTC PET"/>
        <param key="device.ssm.thresholds"  value="1.5 2"/>
        <param key="device.ssm.range" value="20"/>
        <param key="device.ssm.extratime" value="0.5"/>
        <param key="device.ssm.trajectories" value="False"/>
        <param key="device.ssm.geo" value="True"/>
        <param key="has.tripinfo.device" value="true"/>
        <param key="device.tripinfo.probability" value="true"/>
    </vType>
	<vType id="HDC" vClass="passenger" tau="1.2" lcStrategic="0.5" probability="0.9" >
        <param key="has.ssm.device" value="true"/>
        <param key="device.ssm.file" value="ssm_north_HDC.xml" />
        <param key="device.ssm.probability" value="1"/>
        <param key="device.ssm.deterministic" value="True"/>
        <param key="device.ssm.measures" value="TTC PET"/>
        <param key="device.ssm.thresholds"  value="1.5 2"/>
        <param key="device.ssm.range" value="20"/>
        <param key="device.ssm.extratime" value="0.5"/>
        <param key="device.ssm.trajectories" value="False"/>
        <param key="device.ssm.geo" value="True"/>
        <param key="has.tripinfo.device" value="true"/>
        <param key="device.tripinfo.probability" value="true"/>
    </vType>

    <vTypeDistribution id="veh_passenger" vTypes="HDC CAV2 CAV4"/>

    <trip id="veh0" type="veh_passenger" depart="0.00" departLane="best" departSpeed="max" from="556390402#0" to="-35078325"/>
    <trip id="veh1" type="veh_passenger" depart="4.38" departLane="best" departSpeed="max" from="25631272#0" to="-13871250"/>
    <trip id="veh2" type="veh_passenger" depart="8.76" departLane="best" from="-52321641#4" to="35078314#1"/>
    <trip id="veh3" type="veh_passenger" depart="13.13" departLane="best" from="3789368#5" to="361409608#1"/>
    <trip id="veh4" type="veh_passenger" depart="17.51" departLane="best" from="-52321641#5" to="372245387#0"/>
    <trip id="veh5" type="veh_passenger" depart="21.89" departLane="best" from="4401787" to="-125814598"/>
    <trip id="veh6" type="veh_passenger" depart="26.27" departLane="best" from="4401781#2" to="3791905#3"/>
    <trip id="veh7" type="veh_passenger" depart="30.65" departLane="best" from="13871230#1" to="-39179549#0"/>
    <trip id="veh8" type="veh_passenger" depart="35.02" departLane="best" from="-370381577#1" to="-3708463#1"/>
    <trip id="veh9" type="veh_passenger" depart="39.40" departLane="best" from="4908199#2" to="372256216#6"/>
    <trip id="veh10" type="veh_passenger" depart="43.78" departLane="best" from="4401781#3" to="39255348#5"/>
    <trip id="veh11" type="veh_passenger" depart="48.16" departLane="best" from="35078322#1" to="7989950#2"/>
    <trip id="veh12" type="veh_passenger" depart="52.54" departLane="best" departSpeed="max" from="18927706#0" to="361409609"/>
    <trip id="veh13" type="veh_passenger" depart="56.91" departLane="best" from="48482641#0" to="37865098#0"/>
    <trip id="veh14" type="veh_passenger" depart="61.29" departLane="best" from="52321641#1" to="3708838#3"/>
    <trip id="veh15" type="veh_passenger" depart="65.67" departLane="best" from="39178138" to="-317027066#0"/>
    <trip id="veh16" type="veh_passenger" depart="70.05" departLane="best" from="-52321644#2" to="-94838283#3"/>
    <trip id="veh17" type="veh_passenger" depart="74.43" departLane="best" from="-35078322#1" to="-529166755"/>
    <trip id="veh18" type="veh_passenger" depart="78.80" departLane="best" from="-3708465#4" to="-893972084"/>
    <trip id="veh19" type="veh_passenger" depart="83.18" departLane="best" from="3789251#2" to="13907388"/>
    <trip id="veh20" type="veh_passenger" depart="87.56" departLane="best" from="147075690" to="-52321640#1"/>
    <trip id="veh21" type="veh_passenger" depart="91.94" departLane="best" from="-75589201" to="6273612#2"/>
    <trip id="veh22" type="veh_passenger" depart="96.32" departLane="best" from="3789368#3" to="37721991#0"/>
    <trip id="veh23" type="veh_passenger" depart="100.70" departLane="best" from="-401912432#3" to="14331347"/>
    <trip id="veh24" type="veh_passenger" depart="105.07" departLane="best" from="913681361" to="3789252#2"/>
    <trip id="veh25" type="veh_passenger" depart="109.45" departLane="best" from="361409608#0" to="3791905#1"/>
    <trip id="veh26" type="veh_passenger" depart="113.83" departLane="best" from="-52324405" to="-14331347"/>
    <trip id="veh27" type="veh_passenger" depart="118.21" departLane="best" from="12854626#1" to="-75589201"/>
    <trip id="veh28" type="veh_passenger" depart="122.59" departLane="best" from="-52321641#0" to="636824322#1"/>
    <trip id="veh29" type="veh_passenger" depart="126.96" departLane="best" from="52321644#2" to="128450677#2"/>
    <trip id="veh31" type="veh_passenger" depart="135.72" departLane="best" from="585819381#0" to="317027066#0"/>
    <trip id="veh32" type="veh_passenger" depart="140.10" departLane="best" from="-67139161#4" to="-6273612#5"/>
    <trip id="veh33" type="veh_passenger" depart="144.48" departLane="best" from="361409608#3" to="-64270141"/>
    <trip id="veh34" type="veh_passenger" depart="148.85" departLane="best" from="3708578#4" to="52375079#0"/>
    <trip id="veh35" type="veh_passenger" depart="153.23" departLane="best" from="24231262" to="-52321641#4"/>
    <trip id="veh36" type="veh_passenger" depart="157.61" departLane="best" from="94838283#3" to="35078315#1"/>
    <trip id="veh37" type="veh_passenger" depart="161.99" departLane="best" from="-370381577#0" to="-317027066#1"/>
    <trip id="veh38" type="veh_passenger" depart="166.37" departLane="best" from="-372256216#0" to="3789247#1"/>
    <trip id="veh39" type="veh_passenger" depart="170.74" departLane="best" from="4401603#3" to="24769545#0"/>
    <trip id="veh41" type="veh_passenger" depart="179.50" departLane="best" from="94838283#1" to="35078324#0"/>
    <trip id="veh42" type="veh_passenger" depart="183.88" departLane="best" from="7989950#0" to="48985680"/>
    <trip id="veh44" type="veh_passenger" depart="192.63" departLane="best" from="3791905#0" to="360313819#2"/>
    <trip id="veh45" type="veh_passenger" depart="197.01" departLane="best" from="-75589201" to="3789252#2"/>
    <trip id="veh46" type="veh_passenger" depart="201.39" departLane="best" from="-372256216#3" to="292236197"/>
    <trip id="veh47" type="veh_passenger" depart="205.77" departLane="best" from="31028274" to="64270139#0"/>
    <trip id="veh48" type="veh_passenger" depart="210.15" departLane="best" from="35059863#2" to="-4395994#1"/>
    <trip id="veh50" type="veh_passenger" depart="218.90" departLane="best" from="125814738#2" to="3789252#1"/>
    <trip id="veh51" type="veh_passenger" depart="223.28" departLane="best" from="372256216#1" to="-39178107#1"/>
    <trip id="veh52" type="veh_passenger" depart="227.66" departLane="best" from="432565295#3" to="360319693"/>
    <trip id="veh53" type="veh_passenger" depart="232.04" departLane="best" from="4396064#0" to="35078325"/>
    <trip id="veh54" type="veh_passenger" depart="236.41" departLane="best" from="-125813720" to="12854626#2"/>
    <trip id="veh55" type="veh_passenger" depart="240.79" departLane="best" from="-135582840#0" to="6273610#0"/>
    <trip id="veh56" type="veh_passenger" depart="245.17" departLane="best" from="52324406" to="4408238#0"/>
    <trip id="veh58" type="veh_passenger" depart="253.93" departLane="best" from="52324406" to="64270035#1"/>
    <trip id="veh59" type="veh_passenger" depart="258.30" departLane="best" from="-35078311" to="41772639#0"/>
    <trip id="veh60" type="veh_passenger" depart="262.68" departLane="best" from="334138114#3" to="361409608#3"/>
    <trip id="veh61" type="veh_passenger" depart="267.06" departLane="best" from="-67139161#4" to="52321640#0"/>
    <trip id="veh62" type="veh_passenger" depart="271.44" departLane="best" departSpeed="max" from="25631272#0" to="-52321641#0"/>
    <trip id="veh63" type="veh_passenger" depart="275.82" departLane="best" from="35078322#4" to="39255348#5"/>
    <trip id="veh64" type="veh_passenger" depart="280.20" departLane="best" from="-4908185" to="128450677#0"/>
    <trip id="veh65" type="veh_passenger" depart="284.57" departLane="best" from="94838283#1" to="3789372#0"/>
    <trip id="veh66" type="veh_passenger" depart="288.95" departLane="best" from="30988142#0" to="35078320"/>
    <trip id="veh67" type="veh_passenger" depart="293.33" departLane="best" from="-3787679" to="-52321642#0"/>
    <trip id="veh68" type="veh_passenger" depart="297.71" departLane="best" from="13871198#1" to="372245387#0"/>
    <trip id="veh69" type="veh_passenger" depart="302.09" departLane="best" from="-35078314#0" to="3789251#0"/>
    <trip id="veh70" type="veh_passenger" depart="306.46" departLane="best" from="-52324405" to="529166755"/>
    <trip id="veh71" type="veh_passenger" depart="310.84" departLane="best" from="52321641#0" to="-35078314#0"/>
    <trip id="veh72" type="veh_passenger" depart="315.22" departLane="best" from="-6273600#1" to="3789571#3"/>
    <trip id="veh73" type="veh_passenger" depart="319.60" departLane="best" from="-52321641#2" to="-3789252#2"/>
    <trip id="veh74" type="veh_passenger" depart="323.98" departLane="best" from="6273612#1" to="3708578#3"/>
    <trip id="veh75" type="veh_passenger" depart="328.35" departLane="best" from="334138114#1" to="432565295#7"/>
    <trip id="veh76" type="veh_passenger" depart="332.73" departLane="best" from="4401781#4" to="-48859797#0"/>
    <trip id="veh77" type="veh_passenger" depart="337.11" departLane="best" from="-3708463#2" to="27806076#1"/>
    <trip id="veh78" type="veh_passenger" depart="341.49" departLane="best" departSpeed="max" from="25631272#0" to="334138114#2"/>
    <trip id="veh79" type="veh_passenger" depart="345.87" departLane="best" from="893972083" to="-3708463#2"/>
    <trip id="veh80" type="veh_passenger" depart="350.24" departLane="best" from="242586600" to="13871198#1"/>
    <trip id="veh81" type="veh_passenger" depart="354.62" departLane="best" from="52321641#1" to="-636824321"/>
    <trip id="veh82" type="veh_passenger" depart="359.00" departLane="best" from="-48985672" to="31004181#5"/>
    <trip id="veh83" type="veh_passenger" depart="363.38" departLane="best" departSpeed="max" from="25631272#0" to="-893972084"/>
    <trip id="veh84" type="veh_passenger" depart="367.76" departLane="best" from="-63908781" to="59172069#2"/>
    <trip id="veh85" type="veh_passenger" depart="372.13" departLane="best" from="31004181#3" to="4908185"/>
    <trip id="veh86" type="veh_passenger" depart="376.51" departLane="best" from="360313819#2" to="-317027067"/>
    <trip id="veh87" type="veh_passenger" depart="380.89" departLane="best" from="94838283#4" to="4408238#2"/>
    <trip id="veh88" type="veh_passenger" depart="385.27" departLane="best" from="75589201" to="6273600#0"/>
    <trip id="veh89" type="veh_passenger" depart="389.65" departLane="best" from="4908204#1" to="-401912432#4"/>
    <trip id="veh90" type="veh_passenger" depart="394.02" departLane="best" from="33920769#9" to="-52321641#0"/>
    <trip id="veh91" type="veh_passenger" depart="398.40" departLane="best" departSpeed="max" from="18927706#0" to="909777279"/>
    <trip id="veh92" type="veh_passenger" depart="402.78" departLane="best" from="-67139161#4" to="432565295#6"/>
    <trip id="veh93" type="veh_passenger" depart="407.16" departLane="best" from="317027066#0" to="24769545#1"/>
    <trip id="veh94" type="veh_passenger" depart="411.54" departLane="best" from="361409608#0" to="39179549#2"/>
    <trip id="veh95" type="veh_passenger" depart="415.91" departLane="best" from="-39179549#0" to="125814491#1"/>
    <trip id="veh96" type="veh_passenger" depart="420.29" departLane="best" from="35078325" to="401912432#2"/>
    <trip id="veh97" type="veh_passenger" depart="424.67" departLane="best" from="35060878#0" to="48985673#1"/>
    <trip id="veh98" type="veh_passenger" depart="429.05" departLane="best" from="-39179549#2" to="67139161#4"/>
    <trip id="veh99" type="veh_passenger" depart="433.43" departLane="best" from="3708838#5" to="3789575#0"/>
    <trip id="veh100" type="veh_passenger" depart="437.80" departLane="best" from="-5976030" to="-372256221"/>
    <trip id="veh101" type="veh_passenger" depart="442.18" departLane="best" from="556040851#1" to="-6273612#4"/>
    <trip id="veh102" type="veh_passenger" depart="446.56" departLane="best" from="3708838#5" to="37865098#0"/>
    <trip id="veh103" type="veh_passenger" depart="450.94" departLane="best" departSpeed="max" from="25631272#0" to="3708838#5"/>
    <trip id="veh105" type="veh_passenger" depart="459.70" departLane="best" from="3789571#4" to="125814738#2"/>
    <trip id="veh106" type="veh_passenger" depart="464.07" departLane="best" from="12854626#2" to="401912432#4"/>
    <trip id="veh107" type="veh_passenger" depart="468.45" departLane="best" from="-35078314#1" to="317027066#0"/>
    <trip id="veh108" type="veh_passenger" depart="472.83" departLane="best" from="-35078314#2" to="-52321641#0"/>
    <trip id="veh109" type="veh_passenger" depart="477.21" departLane="best" from="-67139161#4" to="6273612#0"/>
    <trip id="veh111" type="veh_passenger" depart="485.96" departLane="best" from="147075690" to="-39179549#2"/>
    <trip id="veh112" type="veh_passenger" depart="490.34" departLane="best" from="48985672" to="38587823"/>
    <trip id="veh113" type="veh_passenger" depart="494.72" departLane="best" from="3789372#1" to="-125814738#1"/>
    <trip id="veh114" type="veh_passenger" depart="499.10" departLane="best" from="4408238#1" to="125814738#1"/>
    <trip id="veh115" type="veh_passenger" depart="503.48" departLane="best" from="-372226859#0" to="369445612"/>
    <trip id="veh116" type="veh_passenger" depart="507.85" departLane="best" from="-80439756#2" to="372256216#7"/>
    <trip id="veh117" type="veh_passenger" depart="512.23" departLane="best" from="39255348#4" to="-52321639#0"/>
    <trip id="veh118" type="veh_passenger" depart="516.61" departLane="best" from="3789251#1" to="-64361352"/>
    <trip id="veh119" type="veh_passenger" depart="520.99" departLane="best" from="33921278#1" to="529166755"/>
    <trip id="veh120" type="veh_passenger" depart="525.37" departLane="best" from="4908199#1" to="-370381577#0"/>
    <trip id="veh121" type="veh_passenger" depart="529.74" departLane="best" departSpeed="max" from="25631272#0" to="-8403822#1"/>
    <trip id="veh122" type="veh_passenger" depart="534.12" departLane="best" from="-125814461#1" to="41772644#6"/>
    <trip id="veh123" type="veh_passenger" depart="538.50" departLane="best" from="3789251#3" to="-64270139#1"/>
    <trip id="veh124" type="veh_passenger" depart="542.88" departLane="best" from="401912432#4" to="361409609"/>
    <trip id="veh125" type="veh_passenger" depart="547.26" departLane="best" from="27806076#0" to="-125814738#2"/>
    <trip id="veh126" type="veh_passenger" depart="551.63" departLane="best" from="-35078316#0" to="52321641#3"/>
    <trip id="veh127" type="veh_passenger" depart="556.01" departLane="best" departSpeed="max" from="556390402#0" to="361409608#1"/>
    <trip id="veh128" type="veh_passenger" depart="560.39" departLane="best" from="48985673#1" to="3708838#5"/>
    <trip id="veh129" type="veh_passenger" depart="564.77" departLane="best" from="-39178091#0" to="-3789251#4"/>
    <trip id="veh130" type="veh_passenger" depart="569.15" departLane="best" departSpeed="max" from="4401661#0" to="48985680"/>
    <trip id="veh131" type="veh_passenger" depart="573.52" departLane="best" departSpeed="max" from="556390402#0" to="-52321640#2"/>
    <trip id="veh132" type="veh_passenger" depart="577.90" departLane="best" from="244844370#1" to="37865098#0"/>
    <trip id="veh133" type="veh_passenger" depart="582.28" departLane="best" from="-39179549#0" to="6273610#1"/>
    <trip id="veh135" type="veh_passenger" depart="591.04" departLane="best" from="-13871198#0" to="397464856#3"/>
    <trip id="veh136" type="veh_passenger" depart="595.41" departLane="best" from="135582842" to="6273610#2"/>
    <trip id="veh137" type="veh_passenger" depart="599.79" departLane="best" from="4401661#3" to="4908199#1"/>
    <trip id="veh139" type="veh_passenger" depart="608.55" departLane="best" from="4396159#3" to="-372226859#0"/>
    <trip id="veh140" type="veh_passenger" depart="612.93" departLane="best" from="-52321642#0" to="4401603#4"/>
    <trip id="veh142" type="veh_passenger" depart="621.68" departLane="best" departSpeed="max" from="4401661#0" to="-52321644#1"/>
    <trip id="veh143" type="veh_passenger" depart="626.06" departLane="best" from="-135582944" to="-48985673#0"/>
    <trip id="veh145" type="veh_passenger" depart="634.82" departLane="best" from="750330944" to="-893972084"/>
    <trip id="veh146" type="veh_passenger" depart="639.19" departLane="best" from="3789252#1" to="18927706#4"/>
    <trip id="veh147" type="veh_passenger" depart="643.57" departLane="best" from="8403822#0" to="360313819#1"/>
    <trip id="veh148" type="veh_passenger" depart="647.95" departLane="best" from="7989950#0" to="-4395994#1"/>
    <trip id="veh149" type="veh_passenger" depart="652.33" departLane="best" from="682430068#0" to="-67139161#3"/>
    <trip id="veh150" type="veh_passenger" depart="656.71" departLane="best" from="-372256216#0" to="292236197"/>
    <trip id="veh151" type="veh_passenger" depart="661.09" departLane="best" from="39994846#1" to="128450677#1"/>
    <trip id="veh152" type="veh_passenger" depart="665.46" departLane="best" from="18927706#2" to="3708838#2"/>
    <trip id="veh153" type="veh_passenger" depart="669.84" departLane="best" from="-64270137#0" to="38587899#1"/>
    <trip id="veh154" type="veh_passenger" depart="674.22" departLane="best" from="-125814461#0" to="6273600#0"/>
    <trip id="veh155" type="veh_passenger" depart="678.60" departLane="best" from="35078322#3" to="39179549#3"/>
    <trip id="veh156" type="veh_passenger" depart="682.98" departLane="best" from="404268319" to="3789571#4"/>
    <trip id="veh157" type="veh_passenger" depart="687.35" departLane="best" from="14401069#2" to="-35078311"/>
    <trip id="veh158" type="veh_passenger" depart="691.73" departLane="best" from="3789374#2" to="129774671#1"/>
    <trip id="veh159" type="veh_passenger" depart="696.11" departLane="best" from="12854626#0" to="48482641#0"/>
    <trip id="veh160" type="veh_passenger" depart="700.49" departLane="best" from="39255348#6" to="125814738#2"/>
    <trip id="veh161" type="veh_passenger" depart="704.87" departLane="best" from="242586599" to="125814491#0"/>
    <trip id="veh162" type="veh_passenger" depart="709.24" departLane="best" from="-3789251#4" to="244844370#2"/>
    <trip id="veh163" type="veh_passenger" depart="713.62" departLane="best" from="6273612#5" to="3789575#1"/>
    <trip id="veh164" type="veh_passenger" depart="718.00" departLane="best" departSpeed="max" from="556390402#0" to="37865098#0"/>
    <trip id="veh165" type="veh_passenger" depart="722.38" departLane="best" from="127200696" to="361409608#2"/>
    <trip id="veh166" type="veh_passenger" depart="726.76" departLane="best" from="27806076#2" to="3708838#4"/>
    <trip id="veh167" type="veh_passenger" depart="731.13" departLane="best" from="3789372#2" to="334138114#0"/>
    <trip id="veh168" type="veh_passenger" depart="735.51" departLane="best" from="31004181#2" to="-52321641#0"/>
    <trip id="veh169" type="veh_passenger" depart="739.89" departLane="best" departSpeed="max" from="4401661#0" to="-41772641"/>
    <trip id="veh170" type="veh_passenger" depart="744.27" departLane="best" from="3789251#0" to="135582842"/>
    <trip id="veh171" type="veh_passenger" depart="748.65" departLane="best" from="4408238#2" to="401912432#4"/>
    <trip id="veh172" type="veh_passenger" depart="753.02" departLane="best" from="3789571#4" to="-52321642#0"/>
    <trip id="veh173" type="veh_passenger" depart="757.40" departLane="best" from="-6273612#4" to="33920769#10"/>
    <trip id="veh174" type="veh_passenger" depart="761.78" departLane="best" from="52321639#0" to="-35078314#1"/>
    <trip id="veh175" type="veh_passenger" depart="766.16" departLane="best" from="-48985674#0" to="3791905#3"/>
    <trip id="veh176" type="veh_passenger" depart="770.54" departLane="best" departSpeed="max" from="35059863#0" to="-6273612#3"/>
    <trip id="veh177" type="veh_passenger" depart="774.91" departLane="best" from="3789372#3" to="-125814491#1"/>
    <trip id="veh178" type="veh_passenger" depart="779.29" departLane="best" from="-372226859#0" to="24807207#1"/>
    <trip id="veh179" type="veh_passenger" depart="783.67" departLane="best" from="-4395994#1" to="64361352"/>
    <trip id="veh180" type="veh_passenger" depart="788.05" departLane="best" from="35078314#1" to="-317027067"/>
    <trip id="veh181" type="veh_passenger" depart="792.43" departLane="best" from="317027066#1" to="4396064#0"/>
    <trip id="veh182" type="veh_passenger" depart="796.80" departLane="best" from="3708838#5" to="64270137#1"/>
    <trip id="veh183" type="veh_passenger" depart="801.18" departLane="best" from="39255348#5" to="35078314#0"/>
    <trip id="veh184" type="veh_passenger" depart="805.56" departLane="best" from="48482641#1" to="361409608#2"/>
    <trip id="veh185" type="veh_passenger" depart="809.94" departLane="best" departSpeed="max" from="556390402#0" to="39994849#1"/>
    <trip id="veh186" type="veh_passenger" depart="814.32" departLane="best" from="334138114#3" to="-64270137#3"/>
    <trip id="veh187" type="veh_passenger" depart="818.69" departLane="best" from="-636824321" to="3789252#1"/>
    <trip id="veh188" type="veh_passenger" depart="823.07" departLane="best" from="432565295#6" to="35078321#2"/>
    <trip id="veh189" type="veh_passenger" depart="827.45" departLane="best" from="3787679" to="-80439756#2"/>
    <trip id="veh190" type="veh_passenger" depart="831.83" departLane="best" from="-35078316#2" to="-94838283#0"/>
    <trip id="veh191" type="veh_passenger" depart="836.21" departLane="best" from="-80439756#1" to="128450677#3"/>
    <trip id="veh192" type="veh_passenger" depart="840.59" departLane="best" from="-529166755" to="3791905#3"/>
    <trip id="veh193" type="veh_passenger" depart="844.96" departLane="best" from="39179549#1" to="-35060878#4"/>
    <trip id="veh194" type="veh_passenger" depart="849.34" departLane="best" from="244844370#2" to="360319695#0"/>
    <trip id="veh195" type="veh_passenger" depart="853.72" departLane="best" departSpeed="max" from="25631272#0" to="-52321639#3"/>
    <trip id="veh196" type="veh_passenger" depart="858.10" departLane="best" departSpeed="max" from="25631272#0" to="529166755"/>
    <trip id="veh197" type="veh_passenger" depart="862.48" departLane="best" from="3708578#4" to="3791905#3"/>
    <trip id="veh198" type="veh_passenger" depart="866.85" departLane="best" from="52321640#2" to="41772643"/>
    <trip id="veh199" type="veh_passenger" depart="871.23" departLane="best" departSpeed="max" from="18927706#0" to="-125814491#1"/>
    <trip id="veh201" type="veh_passenger" depart="879.99" departLane="best" departSpeed="max" from="25631272#0" to="401912432#2"/>
    <trip id="veh202" type="veh_passenger" depart="884.37" departLane="best" from="360313819#0" to="372256216#6"/>
    <trip id="veh203" type="veh_passenger" depart="888.74" departLane="best" from="13871198#0" to="3789578"/>
    <trip id="veh204" type="veh_passenger" depart="893.12" departLane="best" from="244844370#0" to="-401912432#4"/>
    <trip id="veh205" type="veh_passenger" depart="897.50" departLane="best" departSpeed="max" from="317127417" to="-3789251#4"/>
    <trip id="veh206" type="veh_passenger" depart="901.88" departLane="best" from="23086918#0" to="3708465#3"/>
    <trip id="veh207" type="veh_passenger" depart="906.26" departLane="best" from="-3789252#3" to="317027067"/>
    <trip id="veh208" type="veh_passenger" depart="910.63" departLane="best" from="-317027067" to="14331345"/>
    <trip id="veh210" type="veh_passenger" depart="919.39" departLane="best" from="432565295#2" to="14331345"/>
    <trip id="veh211" type="veh_passenger" depart="923.77" departLane="best" from="-64270035#0" to="-35078322#2"/>
    <trip id="veh212" type="veh_passenger" depart="928.15" departLane="best" from="-135582840#0" to="360319693"/>
    <trip id="veh213" type="veh_passenger" depart="932.52" departLane="best" from="94838283#4" to="13871411"/>
    <trip id="veh214" type="veh_passenger" depart="936.90" departLane="best" from="3789368#5" to="432565295#4"/>
    <trip id="veh215" type="veh_passenger" depart="941.28" departLane="best" from="3789372#0" to="40641511"/>
    <trip id="veh216" type="veh_passenger" depart="945.66" departLane="best" from="-135582840#1" to="-39178107#1"/>
    <trip id="veh217" type="veh_passenger" depart="950.04" departLane="best" from="361409609" to="-52321641#3"/>
    <trip id="veh218" type="veh_passenger" depart="954.41" departLane="best" from="39178091#0" to="41772644#0"/>
    <trip id="veh219" type="veh_passenger" depart="958.79" departLane="best" from="-41772639#1" to="37721990"/>
    <trip id="veh220" type="veh_passenger" depart="963.17" departLane="best" from="41772641" to="-372256216#4"/>
    <trip id="veh221" type="veh_passenger" depart="967.55" departLane="best" from="4408238#2" to="750249501"/>
    <trip id="veh224" type="veh_passenger" depart="980.68" departLane="best" from="39255348#2" to="-35078316#1"/>
    <trip id="veh225" type="veh_passenger" depart="985.06" departLane="best" from="384330741" to="3789247#1"/>
    <trip id="veh226" type="veh_passenger" depart="989.44" departLane="best" from="-3708465#5" to="42638928"/>
    <trip id="veh227" type="veh_passenger" depart="993.82" departLane="best" from="-3787679" to="893972083"/>
    <trip id="veh228" type="veh_passenger" depart="998.19" departLane="best" from="4396159#1" to="13871260"/>
    <trip id="veh229" type="veh_passenger" depart="1002.57" departLane="best" from="27806076#1" to="14327272#0"/>
    <trip id="veh230" type="veh_passenger" depart="1006.95" departLane="best" from="35060878#2" to="13871230#0"/>
    <trip id="veh231" type="veh_passenger" depart="1011.33" departLane="best" from="52321639#0" to="4401781#1"/>
    <trip id="veh232" type="veh_passenger" depart="1015.71" departLane="best" from="-3708643" to="67139161#4"/>
    <trip id="veh233" type="veh_passenger" depart="1020.09" departLane="best" from="3789251#2" to="4401806"/>
    <trip id="veh234" type="veh_passenger" depart="1024.46" departLane="best" from="39179549#2" to="292236197"/>
    <trip id="veh235" type="veh_passenger" depart="1028.84" departLane="best" from="39994849#2" to="750249502"/>
    <trip id="veh236" type="veh_passenger" depart="1033.22" departLane="best" from="-7989950#2" to="4396159#1"/>
    <trip id="veh237" type="veh_passenger" depart="1037.60" departLane="best" from="35078322#3" to="33969753#0"/>
    <trip id="veh238" type="veh_passenger" depart="1041.98" departLane="best" from="-7989950#0" to="48985672"/>
    <trip id="veh239" type="veh_passenger" depart="1046.35" departLane="best" from="48482641#1" to="-35078325"/>
    <trip id="veh240" type="veh_passenger" depart="1050.73" departLane="best" from="52822147#0" to="-6273612#2"/>
    <trip id="veh241" type="veh_passenger" depart="1055.11" departLane="best" departSpeed="max" from="317127417" to="37721991#0"/>
    <trip id="veh242" type="veh_passenger" depart="1059.49" departLane="best" departSpeed="max" from="18927706#0" to="-13871230#1"/>
    <trip id="veh243" type="veh_passenger" depart="1063.87" departLane="best" from="-52321641#0" to="4395982#1"/>
    <trip id="veh244" type="veh_passenger" depart="1068.24" departLane="best" from="13871230#1" to="52321641#1"/>