<?xml version="1.0" encoding="UTF-8"?>

<!-- generated on 03/07/21 13:23:55 by Eclipse SUMO duarouter Version 1.8.0
<configuration xmlns:xsi="http://www.w3.org/2001/XMLSchema-instance" xsi:noNamespaceSchemaLocation="http://sumo.dlr.de/xsd/duarouterConfiguration.xsd">

    <input>
        <net-file value="C:\Program%20Files%20(x86)\Eclipse\Sumo\tools\2021-03-07-13-23-46\osm.net.xml"/>
        <route-files value="C:\Program%20Files%20(x86)\Eclipse\Sumo\tools\2021-03-07-13-23-46\osm.bus.trips.xml"/>
    </input>

    <output>
        <output-file value="C:\Program%20Files%20(x86)\Eclipse\Sumo\tools\2021-03-07-13-23-46\osm.bus.trips.xml.tmp"/>
        <write-trips value="true"/>
    </output>

    <time>
        <begin value="0"/>
        <end value="3600"/>
    </time>

    <report>
        <no-warnings value="true"/>
        <ignore-errors value="true"/>
        <no-step-log value="true"/>
    </report>

</configuration>
-->

<routes xmlns:xsi="http://www.w3.org/2001/XMLSchema-instance" xsi:noNamespaceSchemaLocation="http://sumo.dlr.de/xsd/routes_file.xsd">
    <vType id="bus_bus" vClass="bus">
        <param key="has.ssm.device" value="true"/>
        <param key="device.ssm.file" value="ssm_north_bus.xml" />
        <param key="device.ssm.probability" value="1"/>
        <param key="device.ssm.deterministic" value="True"/>
        <param key="device.ssm.measures" value="TTC PET"/>
        <param key="device.ssm.thresholds"  value="1.5 2"/>
        <param key="device.ssm.range" value="20"/>
        <param key="device.ssm.extratime" value="0.5"/>
        <param key="device.ssm.trajectories" value="False"/>
        <param key="device.ssm.geo" value="True"/>
        <param key="has.tripinfo.device" value="true"/>
        <param key="device.tripinfo.probability" value="true"/>
    </vType>
    <trip id="bus0" type="bus_bus" depart="0.00" departLane="best" from="4401781#2" to="-125814491#1"/>
    <trip id="bus2" type="bus_bus" depart="26.27" departLane="best" from="67139161#3" to="128450677#3"/>
    <trip id="bus3" type="bus_bus" depart="39.40" departLane="best" from="4908199#0" to="372245388#1"/>
    <trip id="bus4" type="bus_bus" depart="52.54" departLane="best" from="35078311" to="80433528"/>
    <trip id="bus5" type="bus_bus" depart="65.67" departLane="best" from="52321640#2" to="3708463#2"/>
    <trip id="bus6" type="bus_bus" depart="78.80" departLane="best" departSpeed="max" from="14401069#0" to="-4908185"/>
    <trip id="bus7" type="bus_bus" depart="91.94" departLane="best" from="-39179549#1" to="14327271"/>
    <trip id="bus8" type="bus_bus" depart="105.07" departLane="best" from="94838278#0" to="3789251#2"/>
    <trip id="bus10" type="bus_bus" depart="131.34" departLane="best" from="52321644#2" to="125814738#2"/>
    <trip id="bus11" type="bus_bus" depart="144.48" departLane="best" from="585819383#1" to="31004181#4"/>
    <trip id="bus12" type="bus_bus" depart="157.61" departLane="best" from="370381577#0" to="52822147#1"/>
    <trip id="bus13" type="bus_bus" depart="170.74" departLane="best" departSpeed="max" from="18927706#0" to="-52321640#2"/>
    <trip id="bus14" type="bus_bus" depart="183.88" departLane="best" from="94838283#3" to="35060878#1"/>
    <trip id="bus15" type="bus_bus" depart="197.01" departLane="best" from="-35078322#3" to="-30988141"/>
    <trip id="bus16" type="bus_bus" depart="210.15" departLane="best" from="-3708465#4" to="37865098#0"/>
    <trip id="bus17" type="bus_bus" depart="223.28" departLane="best" from="-334138114#5" to="14327272#0"/>
    <trip id="bus18" type="bus_bus" depart="236.41" departLane="best" from="94838283#2" to="35078315#1"/>
    <trip id="bus19" type="bus_bus" depart="249.55" departLane="best" from="31004181#0" to="64270141"/>
    <trip id="bus20" type="bus_bus" depart="262.68" departLane="best" from="33920769#8" to="-41772641"/>
    <trip id="bus21" type="bus_bus" depart="275.82" departLane="best" from="-94838283#4" to="3789251#1"/>
    <trip id="bus22" type="bus_bus" depart="288.95" departLane="best" from="4395982#1" to="35078316#0"/>
    <trip id="bus23" type="bus_bus" depart="302.09" departLane="best" from="-125813720" to="128450676#3"/>
    <trip id="bus25" type="bus_bus" depart="328.35" departLane="best" from="94838283#1" to="3789368#1"/>
    <trip id="bus26" type="bus_bus" depart="341.49" departLane="best" from="129212233#1" to="3708643"/>
    <trip id="bus27" type="bus_bus" depart="354.62" departLane="best" from="-35060879#0" to="3789247#0"/>
    <trip id="bus28" type="bus_bus" depart="367.76" departLane="best" from="-59172069#2" to="3789374#0"/>
    <trip id="bus29" type="bus_bus" depart="380.89" departLane="best" from="4401781#0" to="-4396064#1"/>
    <trip id="bus30" type="bus_bus" depart="394.02" departLane="best" from="-354380392#0" to="244844370#2"/>
    <trip id="bus31" type="bus_bus" depart="407.16" departLane="best" from="397464856#1" to="3789571#0"/>
    <trip id="bus32" type="bus_bus" depart="420.29" departLane="best" from="893972083" to="-354380392#0"/>
    <trip id="bus33" type="bus_bus" depart="433.43" departLane="best" from="-4396159#1" to="30988140"/>
    <trip id="bus34" type="bus_bus" depart="446.56" departLane="best" from="27806076#1" to="4908199#1"/>
    <trip id="bus36" type="bus_bus" depart="472.83" departLane="best" from="7989950#0" to="6273610#3"/>
    <trip id="bus37" type="bus_bus" depart="485.96" departLane="best" from="334138114#0" to="-52321639#2"/>
    <trip id="bus38" type="bus_bus" depart="499.10" departLane="best" from="18927706#1" to="-334138114#1"/>
    <trip id="bus39" type="bus_bus" depart="512.23" departLane="best" from="14401069#4" to="909777279"/>
    <trip id="bus40" type="bus_bus" depart="525.37" departLane="best" from="67139161#3" to="94838283#1"/>
    <trip id="bus41" type="bus_bus" depart="538.50" departLane="best" from="35078321#2" to="39255345#0"/>
    <trip id="bus42" type="bus_bus" depart="551.63" departLane="best" from="75589201" to="3708465#3"/>
    <trip id="bus44" type="bus_bus" depart="577.90" departLane="best" from="3708465#4" to="37722081#0"/>
    <trip id="bus45" type="bus_bus" depart="591.04" departLane="best" from="-59172069#2" to="14401069#8"/>
    <trip id="bus46" type="bus_bus" depart="604.17" departLane="best" from="3789372#7" to="-94838283#2"/>
    <trip id="bus48" type="bus_bus" depart="630.44" departLane="best" from="-35060879#1" to="31004181#3"/>
    <trip id="bus49" type="bus_bus" depart="643.57" departLane="best" from="-35060879#1" to="-52321639#1"/>
    <trip id="bus51" type="bus_bus" depart="669.84" departLane="best" from="3789368#1" to="-125814598"/>
    <trip id="bus52" type="bus_bus" depart="682.98" departLane="best" from="4408221" to="-94838283#1"/>
    <trip id="bus53" type="bus_bus" depart="696.11" departLane="best" from="3789372#1" to="63908781"/>
    <trip id="bus54" type="bus_bus" depart="709.24" departLane="best" from="-3789251#4" to="-3708578#4"/>
    <trip id="bus55" type="bus_bus" depart="722.38" departLane="best" from="-67139161#3" to="372256216#0"/>
    <trip id="bus56" type="bus_bus" depart="735.51" departLane="best" from="3787679" to="-64270137#0"/>
    <trip id="bus57" type="bus_bus" depart="748.65" departLane="best" from="334138114#2" to="556040851#1"/>
    <trip id="bus59" type="bus_bus" depart="774.91" departLane="best" from="4401603#4" to="4908199#0"/>
    <trip id="bus60" type="bus_bus" depart="788.05" departLane="best" departSpeed="max" from="556390402#0" to="-4908185"/>
    <trip id="bus61" type="bus_bus" depart="801.18" departLane="best" from="4395994#0" to="52321642#1"/>
    <trip id="bus62" type="bus_bus" depart="814.32" departLane="best" from="-39178091#0" to="6273612#2"/>
    <trip id="bus63" type="bus_bus" depart="827.45" departLane="best" from="4401781#3" to="52321641#5"/>
    <trip id="bus64" type="bus_bus" depart="840.59" departLane="best" departSpeed="max" from="129212233#0" to="6273612#2"/>
    <trip id="bus65" type="bus_bus" depart="853.72" departLane="best" departSpeed="max" from="4401661#0" to="4908204#1"/>
    <trip id="bus66" type="bus_bus" depart="866.85" departLane="best" from="4401781#3" to="-64270137#2"/>
    <trip id="bus67" type="bus_bus" depart="879.99" departLane="best" from="4396159#1" to="-3708465#0"/>
    <trip id="bus68" type="bus_bus" depart="893.12" departLane="best" from="52321642#1" to="4908185"/>
    <trip id="bus70" type="bus_bus" depart="919.39" departLane="best" from="4401603#4" to="-52321641#5"/>
    <trip id="bus71" type="bus_bus" depart="932.52" departLane="best" from="750330957" to="-75589201"/>
    <trip id="bus72" type="bus_bus" depart="945.66" departLane="best" from="636824322#1" to="-3708578#4"/>
    <trip id="bus73" type="bus_bus" depart="958.79" departLane="best" from="3708838#5" to="35060878#2"/>
    <trip id="bus74" type="bus_bus" depart="971.93" departLane="best" from="147075690" to="3708463#2"/>
    <trip id="bus75" type="bus_bus" depart="985.06" departLane="best" from="-125814461#0" to="6273610#3"/>
    <trip id="bus76" type="bus_bus" depart="998.19" departLane="best" from="3789372#2" to="128450677#3"/>
    <trip id="bus77" type="bus_bus" depart="1011.33" departLane="best" from="127546529#0" to="48985672"/>
    <trip id="bus78" type="bus_bus" depart="1024.46" departLane="best" from="39255348#1" to="-94838283#2"/>
    <trip id="bus79" type="bus_bus" depart="1037.60" departLane="best" from="125814738#1" to="18927706#3"/>
    <trip id="bus80" type="bus_bus" depart="1050.73" departLane="best" from="18927706#2" to="-94838278#3"/>
    <trip id="bus81" type="bus_bus" depart="1063.87" departLane="best" from="125814461#0" to="35078322#3"/>
    <trip id="bus82" type="bus_bus" depart="1077.00" departLane="best" from="-125813720" to="-8403822#0"/>
    <trip id="bus83" type="bus_bus" depart="1090.13" departLane="best" from="27806076#1" to="-52321639#2"/>
    <trip id="bus84" type="bus_bus" depart="1103.27" departLane="best" from="317027066#2" to="529166755"/>
    <trip id="bus85" type="bus_bus" depart="1116.40" departLane="best" from="4401603#4" to="-39255350"/>
    <trip id="bus86" type="bus_bus" depart="1129.54" departLane="best" from="37722081#1" to="128450677#3"/>
    <trip id="bus87" type="bus_bus" depart="1142.67" departLane="best" from="4908199#1" to="-35060879#0"/>
    <trip id="bus88" type="bus_bus" depart="1155.80" departLane="best" from="-48859797#0" to="3791905#3"/>
    <trip id="bus89" type="bus_bus" depart="1168.94" departLane="best" from="33920769#1" to="-6273600#0"/>
    <trip id="bus90" type="bus_bus" depart="1182.07" departLane="best" from="3789368#2" to="-125814491#0"/>
    <trip id="bus91" type="bus_bus" depart="1195.21" departLane="best" from="-41772641" to="67139161#4"/>
    <trip id="bus92" type="bus_bus" depart="1208.34" departLane="best" from="31004181#2" to="4396064#0"/>
    <trip id="bus93" type="bus_bus" depart="1221.48" departLane="best" from="3789372#4" to="913681361"/>
    <trip id="bus94" type="bus_bus" depart="1234.61" departLane="best" from="3708465#5" to="64270139#0"/>
    <trip id="bus96" type="bus_bus" depart="1260.88" departLane="best" from="48482641#0" to="35078322#3"/>
    <trip id="bus97" type="bus_bus" depart="1274.01" departLane="best" departSpeed="max" from="556390402#0" to="39994849#1"/>
    <trip id="bus98" type="bus_bus" depart="1287.15" departLane="best" from="317027067" to="-63908781"/>
    <trip id="bus99" type="bus_bus" depart="1300.28" departLane="best" from="432565295#1" to="35060881"/>
    <trip id="bus100" type="bus_bus" depart="1313.41" departLane="best" from="372256221" to="-64361352"/>
    <trip id="bus101" type="bus_bus" depart="1326.55" departLane="best" from="-67139161#3" to="128450676#0"/>
    <trip id="bus102" type="bus_bus" depart="1339.68" departLane="best" from="-52321644#2" to="3791905#3"/>
    <trip id="bus103" type="bus_bus" depart="1352.82" departLane="best" from="242586600" to="556040851#1"/>
    <trip id="bus104" type="bus_bus" depart="1365.95" departLane="best" from="370381577#0" to="3791905#3"/>
    <trip id="bus105" type="bus_bus" depart="1379.09" departLane="best" from="14401069#6" to="-125814491#1"/>
    <trip id="bus106" type="bus_bus" depart="1392.22" departLane="best" from="13871198#1" to="404268319"/>
    <trip id="bus107" type="bus_bus" depart="1405.35" departLane="best" departSpeed="max" from="25631272#0" to="-13871198#1"/>
    <trip id="bus108" type="bus_bus" depart="1418.49" departLane="best" departSpeed="max" from="129212233#0" to="3789571#4"/>
    <trip id="bus109" type="bus_bus" depart="1431.62" departLane="best" from="18927706#4" to="-39179549#1"/>
    <trip id="bus110" type="bus_bus" depart="1444.76" departLane="best" departSpeed="max" from="18927706#0" to="361409608#1"/>
    <trip id="bus111" type="bus_bus" depart="1457.89" departLane="best" from="-3789251#5" to="31004181#7"/>
    <trip id="bus112" type="bus_bus" depart="1471.02" departLane="best" from="-317027066#0" to="14327271"/>
    <trip id="bus113" type="bus_bus" depart="1484.16" departLane="best" from="-52321639#2" to="128450677#1"/>
    <trip id="bus114" type="bus_bus" depart="1497.29" departLane="best" from="-636824321" to="-35078314#2"/>
    <trip id="bus116" type="bus_bus" depart="1523.56" departLane="best" from="94838283#4" to="135582840#3"/>
    <trip id="bus118" type="bus_bus" depart="1549.83" departLane="best" from="401912432#4" to="-3708578#3"/>
    <trip id="bus119" type="bus_bus" depart="1562.96" departLane="best" from="4408238#1" to="750330944"/>
    <trip id="bus120" type="bus_bus" depart="1576.10" departLane="best" from="-3708465#3" to="-135582840#3"/>
    <trip id="bus121" type="bus_bus" depart="1589.23" departLane="best" from="125863788" to="3789571#2"/>
    <trip id="bus122" type="bus_bus" depart="1602.37" departLane="best" from="3789578" to="37865098#0"/>
    <trip id="bus123" type="bus_bus" depart="1615.50" departLane="best" from="-3708463#0" to="41772644#6"/>
    <trip id="bus124" type="bus_bus" depart="1628.63" departLane="best" from="4908199#2" to="372245387#1"/>
    <trip id="bus125" type="bus_bus" depart="1641.77" departLane="best" from="24807207#0" to="13907386"/>
    <trip id="bus126" type="bus_bus" depart="1654.90" departLane="best" from="-3708463#2" to="682430068#1"/>
    <trip id="bus127" type="bus_bus" depart="1668.04" departLane="best" from="39994845" to="750330944"/>
    <trip id="bus128" type="bus_bus" depart="1681.17" departLane="best" from="-64361352" to="4401603#0"/>
    <trip id="bus129" type="bus_bus" depart="1694.30" departLane="best" from="35078314#1" to="334138114#4"/>
    <trip id="bus130" type="bus_bus" depart="1707.44" departLane="best" departSpeed="max" from="25631272#0" to="39255350"/>
    <trip id="bus131" type="bus_bus" depart="1720.57" departLane="best" from="48482641#0" to="-35078316#2"/>
    <trip id="bus132" type="bus_bus" depart="1733.71" departLane="best" from="14401069#4" to="-13871198#1"/>
    <trip id="bus134" type="bus_bus" depart="1759.98" departLane="best" from="38587899#1" to="-67139161#3"/>
    <trip id="bus135" type="bus_bus" depart="1773.11" departLane="best" from="-125814738#2" to="64270137#2"/>
    <trip id="bus136" type="bus_bus" depart="1786.24" departLane="best" from="334138114#2" to="40641511"/>
    <trip id="bus137" type="bus_bus" depart="1799.38" departLane="best" from="334138114#4" to="43538582"/>
    <trip id="bus138" type="bus_bus" depart="1812.51" departLane="best" from="3791905#0" to="125814461#0"/>
    <trip id="bus139" type="bus_bus" depart="1825.65" departLane="best" from="361409609" to="317027066#2"/>
    <trip id="bus140" type="bus_bus" depart="1838.78" departLane="best" from="401912432#3" to="128450677#3"/>
    <trip id="bus141" type="bus_bus" depart="1851.91" departLane="best" from="39178091#0" to="-64270139#1"/>
    <trip id="bus142" type="bus_bus" depart="1865.05" departLane="best" from="35078311" to="41772639#1"/>
    <trip id="bus143" type="bus_bus" depart="1878.18" departLane="best" departSpeed="max" from="317127417" to="39255348#2"/>
    <trip id="bus144" type="bus_bus" depart="1891.32" departLane="best" from="80439756#2" to="35078314#1"/>
    <trip id="bus145" type="bus_bus" depart="1904.45" departLane="best" from="-48859797#0" to="-52321641#5"/>
    <trip id="bus146" type="bus_bus" depart="1917.58" departLane="best" from="35060881" to="-64361352"/>
    <trip id="bus147" type="bus_bus" depart="1930.72" departLane="best" from="52321642#1" to="3708463#0"/>
    <trip id="bus149" type="bus_bus" depart="1956.99" departLane="best" from="35078322#4" to="125813720"/>
    <trip id="bus150" type="bus_bus" depart="1970.12" departLane="best" from="94838283#0" to="-372226859#0"/>
    <trip id="bus151" type="bus_bus" depart="1983.26" departLane="best" from="4401603#0" to="-52321641#4"/>
    <trip id="bus152" type="bus_bus" depart="1996.39" departLane="best" from="35060878#0" to="30988141"/>
    <trip id="bus153" type="bus_bus" depart="2009.52" departLane="best" from="27806076#1" to="4908199#0"/>
    <trip id="bus154" type="bus_bus" depart="2022.66" departLane="best" from="3789368#6" to="-39178091#0"/>
    <trip id="bus155" type="bus_bus" depart="2035.79" departLane="best" from="3708465#4" to="-909777279"/>
    <trip id="bus156" type="bus_bus" depart="2048.93" departLane="best" from="-52321644#2" to="39178091#1"/>
    <trip id="bus157" type="bus_bus" depart="2062.06" departLane="best" from="4396159#1" to="37865098#0"/>
    <trip id="bus158" type="bus_bus" depart="2075.19" departLane="best" from="474590054" to="-35060878#4"/>
    <trip id="bus159" type="bus_bus" depart="2088.33" departLane="best" from="-94838278#0" to="-372256216#4"/>
    <trip id="bus160" type="bus_bus" depart="2101.46" departLane="best" from="64270035#0" to="33969753#2"/>
    <trip id="bus162" type="bus_bus" depart="2127.73" departLane="best" from="48985672" to="3708463#1"/>
    <trip id="bus163" type="bus_bus" depart="2140.87" departLane="best" from="64270139#0" to="94838283#4"/>
    <trip id="bus164" type="bus_bus" depart="2154.00" departLane="best" from="334138114#5" to="-35078322#2"/>
    <trip id="bus165" type="bus_bus" depart="2167.13" departLane="best" from="135582944" to="128450677#3"/>
    <trip id="bus166" type="bus_bus" depart="2180.27" departLane="best" from="-94838278#0" to="64270137#0"/>
    <trip id="bus167" type="bus_bus" depart="2193.40" departLane="best" from="4401787" to="35078322#4"/>
    <trip id="bus168" type="bus_bus" depart="2206.54" departLane="best" from="913681361" to="3789372#1"/>
    <trip id="bus169" type="bus_bus" depart="2219.67" departLane="best" from="-4396064#1" to="13871250"/>
    <trip id="bus170" type="bus_bus" depart="2232.80" departLane="best" from="41772643" to="37865098#0"/>
    <trip id="bus171" type="bus_bus" depart="2245.94" departLane="best" from="-372256216#3" to="80433528"/>
    <trip id="bus172" type="bus_bus" depart="2259.07" departLane="best" from="3716925" to="-563891693"/>
    <trip id="bus173" type="bus_bus" depart="2272.21" departLane="best" from="-39178107#1" to="35078324#0"/>
    <trip id="bus174" type="bus_bus" depart="2285.34" departLane="best" from="94838278#3" to="585819383#1"/>
    <trip id="bus175" type="bus_bus" depart="2298.48" departLane="best" from="48482641#1" to="33921278#1"/>
    <trip id="bus176" type="bus_bus" depart="2311.61" departLane="best" from="-67139161#4" to="445383138"/>
    <trip id="bus177" type="bus_bus" depart="2324.74" departLane="best" from="8403822#1" to="-6273600#0"/>
    <trip id="bus178" type="bus_bus" depart="2337.88" departLane="best" from="35078320" to="14327272#0"/>
    <trip id="bus179" type="bus_bus" depart="2351.01" departLane="best" from="-7989950#0" to="43538582"/>
    <trip id="bus180" type="bus_bus" depart="2364.15" departLane="best" from="-8403822#0" to="-94838283#1"/>
    <trip id="bus181" type="bus_bus" depart="2377.28" departLane="best" from="334138114#3" to="-3789372#3"/>
    <trip id="bus182" type="bus_bus" depart="2390.41" departLane="best" from="35078314#1" to="129774671#0"/>
    <trip id="bus183" type="bus_bus" depart="2403.55" departLane="best" from="-4396159#0" to="3791905#3"/>
    <trip id="bus184" type="bus_bus" depart="2416.68" departLane="best" from="4395970" to="-292662748"/>
    <trip id="bus185" type="bus_bus" depart="2429.82" departLane="best" from="401912432#2" to="39178091#0"/>
    <trip id="bus186" type="bus_bus" depart="2442.95" departLane="best" from="3708463#2" to="52321639#3"/>
    <trip id="bus187" type="bus_bus" depart="2456.08" departLane="best" from="52321644#0" to="27806076#0"/>
    <trip id="bus188" type="bus_bus" depart="2469.22" departLane="best" from="35060878#3" to="31004181#2"/>
    <trip id="bus189" type="bus_bus" depart="2482.35" departLane="best" from="39255348#3" to="18927706#4"/>
    <trip id="bus190" type="bus_bus" depart="2495.49" departLane="best" from="31028274" to="7989950#0"/>
    <trip id="bus191" type="bus_bus" depart="2508.62" departLane="best" from="4908204#1" to="4908185"/>
    <trip id="bus192" type="bus_bus" depart="2521.76" departLane="best" from="14401069#6" to="127200696"/>
    <trip id="bus193" type="bus_bus" depart="2534.89" departLane="best" from="52321642#1" to="-14331347"/>
    <trip id="bus194" type="bus_bus" depart="2548.02" departLane="best" from="-35060878#3" to="3789247#0"/>
    <trip id="bus196" type="bus_bus" depart="2574.29" departLane="best" from="-360319695#0" to="3789250#0"/>
    <trip id="bus197" type="bus_bus" depart="2587.43" departLane="best" from="52321642#1" to="27806076#2"/>
    <trip id="bus198" type="bus_bus" depart="2600.56" departLane="best" from="-30988141" to="4395982#0"/>
    <trip id="bus199" type="bus_bus" depart="2613.69" departLane="best" from="-6273600#0" to="585819383#1"/>
    <trip id="bus200" type="bus_bus" depart="2626.83" departLane="best" from="-3789372#1" to="31004181#5"/>
    <trip id="bus201" type="bus_bus" depart="2639.96" departLane="best" from="-125814738#1" to="4396159#0"/>
    <trip id="bus202" type="bus_bus" depart="2653.10" departLane="best" from="-39178107#0" to="27806076#1"/>
    <trip id="bus203" type="bus_bus" depart="2666.23" departLane="best" from="135582840#3" to="3708643"/>
    <trip id="bus204" type="bus_bus" depart="2679.37" departLane="best" from="-6273612#5" to="48859797#0"/>
    <trip id="bus205" type="bus_bus" depart="2692.50" departLane="best" from="-48985674#0" to="14327272#0"/>
    <trip id="bus206" type="bus_bus" depart="2705.63" departLane="best" departSpeed="max" from="317127417" to="-52324406"/>
    <trip id="bus207" type="bus_bus" depart="2718.77" departLane="best" from="-75589201" to="361409608#3"/>
    <trip id="bus208" type="bus_bus" depart="2731.90" departLane="best" from="-310196058" to="372256216#1"/>
    <trip id="bus209" type="bus_bus" depart="2745.04" departLane="best" from="-893972084" to="4395994#0"/>
    <trip id="bus210" type="bus_bus" depart="2758.17" departLane="best" from="3789247#0" to="37722081#1"/>
    <trip id="bus212" type="bus_bus" depart="2784.44" departLane="best" from="27806076#0" to="3708465#3"/>
    <trip id="bus213" type="bus_bus" depart="2797.57" departLane="best" from="-94838283#1" to="39994849#3"/>
    <trip id="bus214" type="bus_bus" depart="2810.71" departLane="best" from="35078314#1" to="7989950#2"/>
    <trip id="bus215" type="bus_bus" depart="2823.84" departLane="best" from="35060879#1" to="585819383#1"/>
    <trip id="bus217" type="bus_bus" depart="2850.11" departLane="best" from="129212233#1" to="-3708578#4"/>
    <trip id="bus218" type="bus_bus" depart="2863.24" departLane="best" from="750249501" to="-3789252#2"/>
    <trip id="bus219" type="bus_bus" depart="2876.38" departLane="best" from="39255348#4" to="8403822#0"/>
    <trip id="bus220" type="bus_bus" depart="2889.51" departLane="best" from="750330957" to="4396159#0"/>
    <trip id="bus222" type="bus_bus" depart="2915.78" departLane="best" from="3789374#0" to="3708578#3"/>
    <trip id="bus224" type="bus_bus" depart="2942.05" departLane="best" from="-3708465#3" to="-52321644#2"/>
    <trip id="bus225" type="bus_bus" depart="2955.18" departLane="best" from="-52321641#3" to="-334138114#5"/>
    <trip id="bus228" type="bus_bus" depart="2994.58" departLane="best" from="125814491#0" to="33920769#7"/>
    <trip id="bus229" type="bus_bus" depart="3007.72" departLane="best" from="-354380392#0" to="52321644#1"/>
    <trip id="bus230" type="bus_bus" depart="3020.85" departLane="best" from="233674059" to="-360319695#0"/>
    <trip id="bus232" type="bus_bus" depart="3047.12" departLane="best" from="-370381577#0" to="3789578"/>
    <trip id="bus233" type="bus_bus" depart="3060.26" departLane="best" from="13871252#0" to="147075690"/>
    <trip id="bus234" type="bus_bus" depart="3073.39" departLane="best" from="4396159#1" to="-6273600#0"/>
    <trip id="bus235" type="bus_bus" depart="3086.52" departLane="best" from="-4908185" to="-52321639#3"/>
    <trip id="bus236" type="bus_bus" depart="3099.66" departLane="best" from="52321641#5" to="128450677#2"/>
    <trip id="bus237" type="bus_bus" depart="3112.79" departLane="best" from="-125814461#1" to="4908185"/>
    <trip id="bus239" type="bus_bus" depart="3139.06" departLane="best" from="-41772639#1" to="-317027066#1"/>
    <trip id="bus240" type="bus_bus" depart="3152.19" departLane="best" from="4395982#0" to="35060878#4"/>
    <trip id="bus242" type="bus_bus" depart="3178.46" departLane="best" from="35060878#0" to="31004181#3"/>
    <trip id="bus243" type="bus_bus" depart="3191.60" departLane="best" from="750249502" to="-334138114#3"/>
    <trip id="bus244" type="bus_bus" depart="3204.73" departLane="best" departSpeed="max" from="317127417" to="147077493#2"/>
    <trip id="bus245" type="bus_bus" depart="3217.87" departLane="best" from="3789572" to="33920769#2"/>
    <trip id="bus246" type="bus_bus" depart="3231.00" departLane="best" from="585819381#0" to="-35060879#1"/>
    <trip id="bus247" type="bus_bus" depart="3244.13" departLane="best" from="-35060878#1" to="-64361352"/>
    <trip id="bus248" type="bus_bus" depart="3257.27" departLane="best" from="12854626#0" to="94838283#1"/>
    <trip id="bus249" type="bus_bus" depart="3270.40" departLane="best" from="35060879#1" to="31004181#0"/>
    <trip id="bus250" type="bus_bus" depart="3283.54" departLane="best" from="3708838#4" to="-360319695#0"/>
    <trip id="bus251" type="bus_bus" depart="3296.67" departLane="best" from="30988141" to="-52321642#0"/>
    <trip id="bus252" type="bus_bus" depart="3309.80" departLane="best" from="129212233#1" to="31004181#0"/>
    <trip id="bus253" type="bus_bus" depart="3322.94" departLane="best" departSpeed="max" from="14401069#0" to="-3789372#6"/>
    <trip id="bus254" type="bus_bus" depart="3336.07" departLane="best" from="48482641#0" to="-35078322#4"/>
    <trip id="bus255" type="bus_bus" depart="3349.21" departLane="best" from="-354380392#0" to="39994846#0"/>
    <trip id="bus256" type="bus_bus" depart="3362.34" departLane="best" from="3708463#0" to="360319695#0"/>
    <trip id="bus257" type="bus_bus" depart="3375.47" departLane="best" from="39255348#2" to="75589201"/>
    <trip id="bus258" type="bus_bus" depart="3388.61" departLane="best" from="3708643" to="135582842"/>
    <trip id="bus259" type="bus_bus" depart="3401.74" departLane="best" from="361409608#2" to="-52321639#1"/>
    <trip id="bus260" type="bus_bus" depart="3414.88" departLane="best" from="6273612#0" to="4408221"/>
    <trip id="bus261" type="bus_bus" depart="3428.01" departLane="best" from="-64270139#1" to="-41772643"/>
    <trip id="bus263" type="bus_bus" depart="3454.28" departLane="best" from="52321641#5" to="361409608#3"/>
    <trip id="bus264" type="bus_bus" depart="3467.41" departLane="best" from="18927706#1" to="-3789252#3"/>
    <trip id="bus265" type="bus_bus" depart="3480.55" departLane="best" from="37722081#1" to="-13871230#0"/>
    <trip id="bus266" type="bus_bus" depart="3493.68" departLane="best" from="4395970" to="361409609"/>
    <trip id="bus267" type="bus_bus" depart="3506.82" departLane="best" from="3789374#1" to="-64270139#1"/>
    <trip id="bus268" type="bus_bus" depart="3519.95" departLane="best" from="27806076#0" to="-64270141"/>
    <trip id="bus269" type="bus_bus" depart="3533.08" departLane="best" from="3789571#0" to="33920769#0"/>
    <trip id="bus270" type="bus_bus" depart="3546.22" departLane="best" from="-63908781" to="128450677#2"/>
    <trip id="bus271" type="bus_bus" depart="3559.35" departLane="best" from="-125814598" to="39994849#3"/>
    <trip id="bus272" type="bus_bus" depart="3572.49" departLane="best" from="39178091#1" to="33969753#2"/>
    <trip id="bus273" type="bus_bus" depart="3585.62" departLane="best" from="48859797#0" to="4396159#1"/>
    <trip id="bus274" type="bus_bus" depart="3598.76" departLane="best" from="-35060879#1" to="4908199#1"/>
</routes>
