<?xml version="1.0" encoding="UTF-8"?>
<!-- generated on 2021-03-07 13:23:58.028573 by $Id$ v1_8_0+0044-4820708f3d
  options: 
-->
<routes xmlns:xsi="http://www.w3.org/2001/XMLSchema-instance" xsi:noNamespaceSchemaLocation="http://sumo.dlr.de/xsd/routes_file.xsd">
    <vType id="ped_pedestrian" vClass="pedestrian">
        <param key="has.ssm.device" value="true"/>
        <param key="device.ssm.file" value="ssm_north_pedestian.xml" />
        <param key="device.ssm.probability" value="1"/>
        <param key="device.ssm.deterministic" value="True"/>
        <param key="device.ssm.measures" value="TTC PET"/>
        <param key="device.ssm.thresholds"  value="1.5 2"/>
        <param key="device.ssm.range" value="20"/>
        <param key="device.ssm.extratime" value="0.5"/>
        <param key="device.ssm.trajectories" value="False"/>
        <param key="device.ssm.geo" value="True"/>
        <param key="has.tripinfo.device" value="true"/>
        <param key="device.tripinfo.probability" value="true"/>
    </vType>
    <person id="ped0" depart="0.00" type="ped_pedestrian">
        <personTrip from="383996048" to="-14331347" modes="public"/>
    </person>
    <person id="ped1" depart="3.88" type="ped_pedestrian">
        <personTrip from="-64270035#0" to="-492437776" modes="public"/>
    </person>
    <person id="ped2" depart="7.75" type="ped_pedestrian">
        <personTrip from="4401603#4" to="39994847#1" modes="public"/>
    </person>
    <person id="ped3" depart="11.63" type="ped_pedestrian">
        <personTrip from="570050937" to="-35060878#2" modes="public"/>
    </person>
    <person id="ped4" depart="15.50" type="ped_pedestrian">
        <personTrip from="261720230#1" to="-153340544#1" modes="public"/>
    </person>
    <person id="ped5" depart="19.38" type="ped_pedestrian">
        <personTrip from="-48985678" to="317027066#1" modes="public"/>
    </person>
    <person id="ped6" depart="23.25" type="ped_pedestrian">
        <personTrip from="-153254952#0" to="-442035827#0" modes="public"/>
    </person>
    <person id="ped7" depart="27.13" type="ped_pedestrian">
        <personTrip from="389939200" to="35078316#1" modes="public"/>
    </person>
    <person id="ped8" depart="31.00" type="ped_pedestrian">
        <personTrip from="-48985680" to="372245388#0" modes="public"/>
    </person>
    <person id="ped9" depart="34.88" type="ped_pedestrian">
        <personTrip from="50017697" to="-127200696" modes="public"/>
    </person>
    <person id="ped10" depart="38.75" type="ped_pedestrian">
        <personTrip from="50017686#3" to="41772644#0" modes="public"/>
    </person>
    <person id="ped11" depart="42.63" type="ped_pedestrian">
        <personTrip from="13871230#0" to="-39179549#2" modes="public"/>
    </person>
    <person id="ped12" depart="46.50" type="ped_pedestrian">
        <personTrip from="67139161#4" to="135582946#0" modes="public"/>
    </person>
    <person id="ped13" depart="50.38" type="ped_pedestrian">
        <personTrip from="-35078314#0" to="-35078316#2" modes="public"/>
    </person>
    <person id="ped14" depart="54.26" type="ped_pedestrian">
        <personTrip from="52321650#1" to="3787679" modes="public"/>
    </person>
    <person id="ped15" depart="58.13" type="ped_pedestrian">
        <personTrip from="50017691#1" to="4396056" modes="public"/>
    </person>
    <person id="ped16" depart="62.01" type="ped_pedestrian">
        <personTrip from="35060879#2" to="75589202#1" modes="public"/>
    </person>
    <person id="ped17" depart="65.88" type="ped_pedestrian">
        <personTrip from="229049446" to="35078322#1" modes="public"/>
    </person>
    <person id="ped18" depart="69.76" type="ped_pedestrian">
        <personTrip from="52321639#2" to="3789372#2" modes="public"/>
    </person>
    <person id="ped19" depart="73.63" type="ped_pedestrian">
        <personTrip from="530918664#1" to="3708465#0" modes="public"/>
    </person>
    <person id="ped20" depart="77.51" type="ped_pedestrian">
        <personTrip from="422732483#1" to="-265511649" modes="public"/>
    </person>
    <person id="ped21" depart="81.38" type="ped_pedestrian">
        <personTrip from="-50016333" to="-67139249#2" modes="public"/>
    </person>
    <person id="ped22" depart="85.26" type="ped_pedestrian">
        <personTrip from="-334138114#5" to="-52321640#0" modes="public"/>
    </person>
    <person id="ped23" depart="89.13" type="ped_pedestrian">
        <personTrip from="-35078324#0" to="-64270137#2" modes="public"/>
    </person>
    <person id="ped24" depart="93.01" type="ped_pedestrian">
        <personTrip from="3791905#0" to="153254952#1" modes="public"/>
    </person>
    <person id="ped25" depart="96.88" type="ped_pedestrian">
        <personTrip from="18927706#0" to="-473472741" modes="public"/>
    </person>
    <person id="ped26" depart="100.76" type="ped_pedestrian">
        <personTrip from="-6273612#0" to="64270137#2" modes="public"/>
    </person>
    <person id="ped27" depart="104.64" type="ped_pedestrian">
        <personTrip from="389938529#0" to="3789251#3" modes="public"/>
    </person>
    <person id="ped28" depart="108.51" type="ped_pedestrian">
        <personTrip from="-41772641" to="4396056" modes="public"/>
    </person>
    <person id="ped29" depart="112.39" type="ped_pedestrian">
        <personTrip from="-401764333#0" to="229061149" modes="public"/>
    </person>
    <person id="ped30" depart="116.26" type="ped_pedestrian">
        <personTrip from="904142602#0" to="383996050" modes="public"/>
    </person>
    <person id="ped31" depart="120.14" type="ped_pedestrian">
        <personTrip from="35081617#1" to="401764331" modes="public"/>
    </person>
    <person id="ped32" depart="124.01" type="ped_pedestrian">
        <personTrip from="52321647" to="48985674#1" modes="public"/>
    </person>
    <person id="ped33" depart="127.89" type="ped_pedestrian">
        <personTrip from="-515972530" to="-229061163#0" modes="public"/>
    </person>
    <person id="ped34" depart="131.76" type="ped_pedestrian">
        <personTrip from="125814491#1" to="-6273612#1" modes="public"/>
    </person>
    <person id="ped35" depart="135.64" type="ped_pedestrian">
        <personTrip from="-473472743#1" to="648631257#2" modes="public"/>
    </person>
    <person id="ped36" depart="139.51" type="ped_pedestrian">
        <personTrip from="549289141#3" to="125814491#0" modes="public"/>
    </person>
    <person id="ped37" depart="143.39" type="ped_pedestrian">
        <personTrip from="39179549#1" to="244844370#2" modes="public"/>
    </person>
    <person id="ped38" depart="147.26" type="ped_pedestrian">
        <personTrip from="60693102#2" to="290533435" modes="public"/>
    </person>
    <person id="ped39" depart="151.14" type="ped_pedestrian">
        <personTrip from="-619879374#1" to="-543369723" modes="public"/>
    </person>
    <person id="ped40" depart="155.01" type="ped_pedestrian">
        <personTrip from="354380395#1" to="-619585298" modes="public"/>
    </person>
    <person id="ped41" depart="158.89" type="ped_pedestrian">
        <personTrip from="3708838#4" to="570050942#3" modes="public"/>
    </person>
    <person id="ped42" depart="162.77" type="ped_pedestrian">
        <personTrip from="24807207#2" to="-48985679" modes="public"/>
    </person>
    <person id="ped43" depart="166.64" type="ped_pedestrian">
        <personTrip from="94838283#1" to="32866923#1" modes="public"/>
    </person>
    <person id="ped44" depart="170.52" type="ped_pedestrian">
        <personTrip from="-35060879#2" to="-271946365#3" modes="public"/>
    </person>
    <person id="ped45" depart="174.39" type="ped_pedestrian">
        <personTrip from="-361409607" to="3789571#2" modes="public"/>
    </person>
    <person id="ped46" depart="178.27" type="ped_pedestrian">
        <personTrip from="497328800#0" to="261720230#1" modes="public"/>
    </person>
    <person id="ped47" depart="182.14" type="ped_pedestrian">
        <personTrip from="-296747003#0" to="229119089#1" modes="public"/>
    </person>
    <person id="ped48" depart="186.02" type="ped_pedestrian">
        <personTrip from="94838278#3" to="35059863#1" modes="public"/>
    </person>
    <person id="ped49" depart="189.89" type="ped_pedestrian">
        <personTrip from="75589200" to="530918663" modes="public"/>
    </person>
    <person id="ped50" depart="193.77" type="ped_pedestrian">
        <personTrip from="-129774671#1" to="436633350#1" modes="public"/>
    </person>
    <person id="ped51" depart="197.64" type="ped_pedestrian">
        <personTrip from="39994849#1" to="35060880" modes="public"/>
    </person>
    <person id="ped52" depart="201.52" type="ped_pedestrian">
        <personTrip from="-6273612#0" to="384351845#1" modes="public"/>
    </person>
    <person id="ped53" depart="205.39" type="ped_pedestrian">
        <personTrip from="-361409608#2" to="278831086" modes="public"/>
    </person>
    <person id="ped54" depart="209.27" type="ped_pedestrian">
        <personTrip from="283027290#0" to="668344574#1" modes="public"/>
    </person>
    <person id="ped55" depart="213.15" type="ped_pedestrian">
        <personTrip from="549289141#2" to="-619879373" modes="public"/>
    </person>
    <person id="ped56" depart="217.02" type="ped_pedestrian">
        <personTrip from="316385564" to="-422732485#1" modes="public"/>
    </person>
    <person id="ped57" depart="220.90" type="ped_pedestrian">
        <personTrip from="60693101" to="543201145#0" modes="public"/>
    </person>
    <person id="ped58" depart="224.77" type="ped_pedestrian">
        <personTrip from="-80439756#1" to="383996048" modes="public"/>
    </person>
    <person id="ped59" depart="228.65" type="ped_pedestrian">
        <personTrip from="3789251#3" to="-39178107#1" modes="public"/>
    </person>
    <person id="ped60" depart="232.52" type="ped_pedestrian">
        <personTrip from="473472738#1" to="35078312" modes="public"/>
    </person>
    <person id="ped61" depart="236.40" type="ped_pedestrian">
        <personTrip from="48985677" to="35059863#3" modes="public"/>
    </person>
    <person id="ped62" depart="240.27" type="ped_pedestrian">
        <personTrip from="-125813720" to="128450677#1" modes="public"/>
    </person>
    <person id="ped63" depart="244.15" type="ped_pedestrian">
        <personTrip from="-13871250" to="636824321" modes="public"/>
    </person>
    <person id="ped64" depart="248.02" type="ped_pedestrian">
        <personTrip from="549289144" to="52321640#1" modes="public"/>
    </person>
    <person id="ped65" depart="251.90" type="ped_pedestrian">
        <personTrip from="-94838283#1" to="-291344732#1" modes="public"/>
    </person>
    <person id="ped66" depart="255.77" type="ped_pedestrian">
        <personTrip from="549289143" to="665684897#1" modes="public"/>
    </person>
    <person id="ped67" depart="259.65" type="ped_pedestrian">
        <personTrip from="-35060878#0" to="31004181#4" modes="public"/>
    </person>
    <person id="ped68" depart="263.53" type="ped_pedestrian">
        <personTrip from="-310196057#0" to="473472735" modes="public"/>
    </person>
    <person id="ped69" depart="267.40" type="ped_pedestrian">
        <personTrip from="473472745#0" to="-376394517" modes="public"/>
    </person>
    <person id="ped70" depart="271.28" type="ped_pedestrian">
        <personTrip from="296747003#0" to="35078321#1" modes="public"/>
    </person>
    <person id="ped71" depart="275.15" type="ped_pedestrian">
        <personTrip from="-619879374#1" to="543369723" modes="public"/>
    </person>
    <person id="ped72" depart="279.03" type="ped_pedestrian">
        <personTrip from="265511640" to="-473472745#0" modes="public"/>
    </person>
    <person id="ped73" depart="282.90" type="ped_pedestrian">
        <personTrip from="35078312" to="4396064#0" modes="public"/>
    </person>
    <person id="ped74" depart="286.78" type="ped_pedestrian">
        <personTrip from="-46055277" to="104378042#0" modes="public"/>
    </person>
    <person id="ped75" depart="290.65" type="ped_pedestrian">
        <personTrip from="94838278#1" to="389939200" modes="public"/>
    </person>
    <person id="ped76" depart="294.53" type="ped_pedestrian">
        <personTrip from="278927967#0" to="334138114#3" modes="public"/>
    </person>
    <person id="ped77" depart="298.40" type="ped_pedestrian">
        <personTrip from="-3708643" to="-49710569#2" modes="public"/>
    </person>
    <person id="ped78" depart="302.28" type="ped_pedestrian">
        <personTrip from="13871189" to="372245387#0" modes="public"/>
    </person>
    <person id="ped79" depart="306.15" type="ped_pedestrian">
        <personTrip from="-52321639#0" to="-48985680" modes="public"/>
    </person>
    <person id="ped80" depart="310.03" type="ped_pedestrian">
        <personTrip from="-310196058" to="3789575#1" modes="public"/>
    </person>
    <person id="ped81" depart="313.91" type="ped_pedestrian">
        <personTrip from="-515972530" to="585819383#1" modes="public"/>
    </person>
    <person id="ped82" depart="317.78" type="ped_pedestrian">
        <personTrip from="530918662#1" to="-310196058" modes="public"/>
    </person>
    <person id="ped83" depart="321.66" type="ped_pedestrian">
        <personTrip from="-52321641#5" to="399483545" modes="public"/>
    </person>
    <person id="ped84" depart="325.53" type="ped_pedestrian">
        <personTrip from="-48863650" to="-3789251#0" modes="public"/>
    </person>
    <person id="ped85" depart="329.41" type="ped_pedestrian">
        <personTrip from="64270137#0" to="361409608#3" modes="public"/>
    </person>
    <person id="ped86" depart="333.28" type="ped_pedestrian">
        <personTrip from="292662750#0" to="4908199#0" modes="public"/>
    </person>
    <person id="ped87" depart="337.16" type="ped_pedestrian">
        <personTrip from="50017691#1" to="-4396159#3" modes="public"/>
    </person>
    <person id="ped88" depart="341.03" type="ped_pedestrian">
        <personTrip from="-35078322#0" to="27806076#3" modes="public"/>
    </person>
    <person id="ped89" depart="344.91" type="ped_pedestrian">
        <personTrip from="265511649" to="292055769" modes="public"/>
    </person>
    <person id="ped90" depart="348.78" type="ped_pedestrian">
        <personTrip from="4396056" to="39994845" modes="public"/>
    </person>
    <person id="ped91" depart="352.66" type="ped_pedestrian">
        <personTrip from="876578184#1" to="-35078322#2" modes="public"/>
    </person>
    <person id="ped92" depart="356.53" type="ped_pedestrian">
        <personTrip from="251421389#3" to="13871198#0" modes="public"/>
    </person>
    <person id="ped93" depart="360.41" type="ped_pedestrian">
        <personTrip from="530918664#1" to="-549289141#2" modes="public"/>
    </person>
    <person id="ped94" depart="364.29" type="ped_pedestrian">
        <personTrip from="-4396159#3" to="279381058#0" modes="public"/>
    </person>
    <person id="ped95" depart="368.16" type="ped_pedestrian">
        <personTrip from="261720230#1" to="-64270137#3" modes="public"/>
    </person>
    <person id="ped96" depart="372.04" type="ped_pedestrian">
        <personTrip from="-549289142" to="6273610#2" modes="public"/>
    </person>
    <person id="ped97" depart="375.91" type="ped_pedestrian">
        <personTrip from="278927971#0" to="530918664#0" modes="public"/>
    </person>
    <person id="ped98" depart="379.79" type="ped_pedestrian">
        <personTrip from="35078321#2" to="-290533432" modes="public"/>
    </person>
    <person id="ped99" depart="383.66" type="ped_pedestrian">
        <personTrip from="94838283#4" to="52321641#5" modes="public"/>
    </person>
    <person id="ped100" depart="387.54" type="ped_pedestrian">
        <personTrip from="750330944" to="6273612#2" modes="public"/>
    </person>
    <person id="ped101" depart="391.41" type="ped_pedestrian">
        <personTrip from="52324406" to="-401767522#2" modes="public"/>
    </person>
    <person id="ped102" depart="395.29" type="ped_pedestrian">
        <personTrip from="31004181#3" to="-48859797#0" modes="public"/>
    </person>
    <person id="ped103" depart="399.16" type="ped_pedestrian">
        <personTrip from="251421389#1" to="-292662748" modes="public"/>
    </person>
    <person id="ped104" depart="403.04" type="ped_pedestrian">
        <personTrip from="229061149" to="876578185" modes="public"/>
    </person>
    <person id="ped105" depart="406.91" type="ped_pedestrian">
        <personTrip from="-6273600#0" to="4908185" modes="public"/>
    </person>
    <person id="ped106" depart="410.79" type="ped_pedestrian">
        <personTrip from="283027291" to="265511640" modes="public"/>
    </person>
    <person id="ped107" depart="414.66" type="ped_pedestrian">
        <personTrip from="67139161#4" to="94838278#1" modes="public"/>
    </person>
    <person id="ped108" depart="418.54" type="ped_pedestrian">
        <personTrip from="35081617#0" to="43326326" modes="public"/>
    </person>
    <person id="ped109" depart="422.42" type="ped_pedestrian">
        <personTrip from="-39179549#1" to="-7989950#1" modes="public"/>
    </person>
    <person id="ped110" depart="426.29" type="ped_pedestrian">
        <personTrip from="750330944" to="3708465#5" modes="public"/>
    </person>
    <person id="ped111" depart="430.17" type="ped_pedestrian">
        <personTrip from="35078314#2" to="440850338" modes="public"/>
    </person>
    <person id="ped112" depart="434.04" type="ped_pedestrian">
        <personTrip from="-291344731#3" to="3708838#4" modes="public"/>
    </person>
    <person id="ped113" depart="437.92" type="ped_pedestrian">
        <personTrip from="316644270#2" to="52822147#2" modes="public"/>
    </person>
    <person id="ped114" depart="441.79" type="ped_pedestrian">
        <personTrip from="-399483546#0" to="677113762#1" modes="public"/>
    </person>
    <person id="ped115" depart="445.67" type="ped_pedestrian">
        <personTrip from="-334138114#5" to="-4396038#2" modes="public"/>
    </person>
    <person id="ped116" depart="449.54" type="ped_pedestrian">
        <personTrip from="372256216#7" to="39994846#2" modes="public"/>
    </person>
    <person id="ped117" depart="453.42" type="ped_pedestrian">
        <personTrip from="-52321641#0" to="-3708578#3" modes="public"/>
    </person>
    <person id="ped118" depart="457.29" type="ped_pedestrian">
        <personTrip from="56681848" to="-543369723" modes="public"/>
    </person>
    <person id="ped119" depart="461.17" type="ped_pedestrian">
        <personTrip from="372256216#7" to="3789372#3" modes="public"/>
    </person>
    <person id="ped120" depart="465.04" type="ped_pedestrian">
        <personTrip from="261557474#1" to="3708838#3" modes="public"/>
    </person>
    <person id="ped121" depart="468.92" type="ped_pedestrian">
        <personTrip from="33920769#7" to="64270035#1" modes="public"/>
    </person>
    <person id="ped122" depart="472.80" type="ped_pedestrian">
        <personTrip from="-461653746" to="432565295#8" modes="public"/>
    </person>
    <person id="ped123" depart="476.67" type="ped_pedestrian">
        <personTrip from="-52321642#0" to="244844370#2" modes="public"/>
    </person>
    <person id="ped124" depart="480.55" type="ped_pedestrian">
        <personTrip from="399483548#0" to="-83942465" modes="public"/>
    </person>
    <person id="ped125" depart="484.42" type="ped_pedestrian">
        <personTrip from="125814598" to="442035819#1" modes="public"/>
    </person>
    <person id="ped126" depart="488.30" type="ped_pedestrian">
        <personTrip from="-317003256" to="290533432" modes="public"/>
    </person>
    <person id="ped127" depart="492.17" type="ped_pedestrian">
        <personTrip from="94838283#2" to="94838278#3" modes="public"/>
    </person>
    <person id="ped128" depart="496.05" type="ped_pedestrian">
        <personTrip from="-317027066#0" to="-473472747" modes="public"/>
    </person>
    <person id="ped129" depart="499.92" type="ped_pedestrian">
        <personTrip from="-6273600#0" to="64270030" modes="public"/>
    </person>
    <person id="ped130" depart="503.80" type="ped_pedestrian">
        <personTrip from="549611602" to="549289147" modes="public"/>
    </person>
    <person id="ped131" depart="507.67" type="ped_pedestrian">
        <personTrip from="185263806#1" to="-399483546#0" modes="public"/>
    </person>
    <person id="ped132" depart="511.55" type="ped_pedestrian">
        <personTrip from="52321641#1" to="42002768#3" modes="public"/>
    </person>
    <person id="ped133" depart="515.42" type="ped_pedestrian">
        <personTrip from="3789252#1" to="904142601#0" modes="public"/>
    </person>
    <person id="ped134" depart="519.30" type="ped_pedestrian">
        <personTrip from="39178138" to="-128450676#0" modes="public"/>
    </person>
    <person id="ped135" depart="523.18" type="ped_pedestrian">
        <personTrip from="507543724#1" to="-83942465" modes="public"/>
    </person>
    <person id="ped136" depart="527.05" type="ped_pedestrian">
        <personTrip from="39255348#6" to="64270139#1" modes="public"/>
    </person>
    <person id="ped137" depart="530.93" type="ped_pedestrian">
        <personTrip from="-3789251#3" to="-3708463#1" modes="public"/>
    </person>
    <person id="ped138" depart="534.80" type="ped_pedestrian">
        <personTrip from="-357010634#2" to="35078322#3" modes="public"/>
    </person>
    <person id="ped139" depart="538.68" type="ped_pedestrian">
        <personTrip from="-636824322#1" to="3789247#1" modes="public"/>
    </person>
    <person id="ped140" depart="542.55" type="ped_pedestrian">
        <personTrip from="43325906" to="-461653745" modes="public"/>
    </person>
    <person id="ped141" depart="546.43" type="ped_pedestrian">
        <personTrip from="378969889" to="-619879374#0" modes="public"/>
    </person>
    <person id="ped142" depart="550.30" type="ped_pedestrian">
        <personTrip from="31004181#8" to="585819383#1" modes="public"/>
    </person>
    <person id="ped143" depart="554.18" type="ped_pedestrian">
        <personTrip from="52321649#2" to="-35078311" modes="public"/>
    </person>
    <person id="ped144" depart="558.05" type="ped_pedestrian">
        <personTrip from="265511649" to="-64270137#0" modes="public"/>
    </person>
    <person id="ped145" depart="561.93" type="ped_pedestrian">
        <personTrip from="-125814491#1" to="48482641#1" modes="public"/>
    </person>
    <person id="ped146" depart="565.80" type="ped_pedestrian">
        <personTrip from="3791905#2" to="-60693101" modes="public"/>
    </person>
    <person id="ped147" depart="569.68" type="ped_pedestrian">
        <personTrip from="4401781#2" to="35078322#1" modes="public"/>
    </person>
    <person id="ped148" depart="573.56" type="ped_pedestrian">
        <personTrip from="271946366" to="-128450676#3" modes="public"/>
    </person>
    <person id="ped149" depart="577.43" type="ped_pedestrian">
        <personTrip from="-317027067" to="550187799" modes="public"/>
    </person>
    <person id="ped150" depart="581.31" type="ped_pedestrian">
        <personTrip from="585819381#1" to="35078316#2" modes="public"/>
    </person>
    <person id="ped151" depart="585.18" type="ped_pedestrian">
        <personTrip from="52321641#3" to="3708643" modes="public"/>
    </person>
    <person id="ped152" depart="589.06" type="ped_pedestrian">
        <personTrip from="-388116868" to="-372256221" modes="public"/>
    </person>
    <person id="ped153" depart="592.93" type="ped_pedestrian">
        <personTrip from="-94838283#2" to="570050942#5" modes="public"/>
    </person>
    <person id="ped154" depart="596.81" type="ped_pedestrian">
        <personTrip from="50005612#3" to="530918663" modes="public"/>
    </person>
    <person id="ped155" depart="600.68" type="ped_pedestrian">
        <personTrip from="570050942#5" to="-473472743#0" modes="public"/>
    </person>
    <person id="ped156" depart="604.56" type="ped_pedestrian">
        <personTrip from="-549289142" to="-35081617#1" modes="public"/>
    </person>
    <person id="ped157" depart="608.43" type="ped_pedestrian">
        <personTrip from="48985679" to="550187800" modes="public"/>
    </person>
    <person id="ped158" depart="612.31" type="ped_pedestrian">
        <personTrip from="25631150#1" to="3789372#5" modes="public"/>
    </person>
    <person id="ped159" depart="616.18" type="ped_pedestrian">
        <personTrip from="-39179549#1" to="636824322#1" modes="public"/>
    </person>
    <person id="ped160" depart="620.06" type="ped_pedestrian">
        <personTrip from="542383591#0" to="80433528" modes="public"/>
    </person>
    <person id="ped161" depart="623.94" type="ped_pedestrian">
        <personTrip from="507535910" to="549611608" modes="public"/>
    </person>
    <person id="ped162" depart="627.81" type="ped_pedestrian">
        <personTrip from="-14331347" to="4401603#4" modes="public"/>
    </person>
    <person id="ped163" depart="631.69" type="ped_pedestrian">
        <personTrip from="135582840#0" to="64062143#0" modes="public"/>
    </person>
    <person id="ped164" depart="635.56" type="ped_pedestrian">
        <personTrip from="50014743" to="542383590#1" modes="public"/>
    </person>
    <person id="ped165" depart="639.44" type="ped_pedestrian">
        <personTrip from="507535910" to="-6273612#0" modes="public"/>
    </person>
    <person id="ped166" depart="643.31" type="ped_pedestrian">
        <personTrip from="491191273#0" to="-358260293" modes="public"/>
    </person>
    <person id="ped167" depart="647.19" type="ped_pedestrian">
        <personTrip from="543369723" to="530918661#5" modes="public"/>
    </person>
    <person id="ped168" depart="651.06" type="ped_pedestrian">
        <personTrip from="-4908204#1" to="507543724#1" modes="public"/>
    </person>
    <person id="ped169" depart="654.94" type="ped_pedestrian">
        <personTrip from="290533449#0" to="-94838278#1" modes="public"/>
    </person>
    <person id="ped170" depart="658.81" type="ped_pedestrian">
        <personTrip from="50005612#2" to="-50016333" modes="public"/>
    </person>
    <person id="ped171" depart="662.69" type="ped_pedestrian">
        <personTrip from="-14047796" to="-442035815#1" modes="public"/>
    </person>
    <person id="ped172" depart="666.56" type="ped_pedestrian">
        <personTrip from="12854626#2" to="542383590#1" modes="public"/>
    </person>
    <person id="ped173" depart="670.44" type="ped_pedestrian">
        <personTrip from="708148471" to="-64270139#0" modes="public"/>
    </person>
    <person id="ped174" depart="674.31" type="ped_pedestrian">
        <personTrip from="384351845#1" to="24807207#2" modes="public"/>
    </person>
    <person id="ped175" depart="678.19" type="ped_pedestrian">
        <personTrip from="8403822#1" to="35060879#2" modes="public"/>
    </person>
    <person id="ped176" depart="682.07" type="ped_pedestrian">
        <personTrip from="64270139#1" to="-3708463#1" modes="public"/>
    </person>
    <person id="ped177" depart="685.94" type="ped_pedestrian">
        <personTrip from="75474830" to="-422732485#1" modes="public"/>
    </person>
    <person id="ped178" depart="689.82" type="ped_pedestrian">
        <personTrip from="682430068#0" to="-6273600#0" modes="public"/>
    </person>
    <person id="ped179" depart="693.69" type="ped_pedestrian">
        <personTrip from="-358260293" to="278831086" modes="public"/>
    </person>
    <person id="ped180" depart="697.57" type="ped_pedestrian">
        <personTrip from="4396040" to="125814461#0" modes="public"/>
    </person>
    <person id="ped181" depart="701.44" type="ped_pedestrian">
        <personTrip from="3789250#1" to="32866923#4" modes="public"/>
    </person>
    <person id="ped182" depart="705.32" type="ped_pedestrian">
        <personTrip from="232841336#1" to="3708463#2" modes="public"/>
    </person>
    <person id="ped183" depart="709.19" type="ped_pedestrian">
        <personTrip from="-550187799" to="422732486" modes="public"/>
    </person>
    <person id="ped184" depart="713.07" type="ped_pedestrian">
        <personTrip from="-125814461#1" to="6273612#1" modes="public"/>
    </person>
    <person id="ped185" depart="716.94" type="ped_pedestrian">
        <personTrip from="35078311" to="43538582" modes="public"/>
    </person>
    <person id="ped186" depart="720.82" type="ped_pedestrian">
        <personTrip from="4401781#3" to="399483546#1" modes="public"/>
    </person>
    <person id="ped187" depart="724.69" type="ped_pedestrian">
        <personTrip from="153254952#1" to="-310196057#1" modes="public"/>
    </person>
    <person id="ped188" depart="728.57" type="ped_pedestrian">
        <personTrip from="39255349#0" to="129212233#1" modes="public"/>
    </person>
    <person id="ped189" depart="732.45" type="ped_pedestrian">
        <personTrip from="125814461#1" to="52324405" modes="public"/>
    </person>
    <person id="ped190" depart="736.32" type="ped_pedestrian">
        <personTrip from="436633350#0" to="-8403822#0" modes="public"/>
    </person>
    <person id="ped191" depart="740.20" type="ped_pedestrian">
        <personTrip from="-94838283#3" to="25631165#3" modes="public"/>
    </person>
    <person id="ped192" depart="744.07" type="ped_pedestrian">
        <personTrip from="251421389#3" to="-757833288" modes="public"/>
    </person>
    <person id="ped193" depart="747.95" type="ped_pedestrian">
        <personTrip from="-372256221" to="261557483" modes="public"/>
    </person>
    <person id="ped194" depart="751.82" type="ped_pedestrian">
        <personTrip from="64270141" to="39994847#1" modes="public"/>
    </person>
    <person id="ped195" depart="755.70" type="ped_pedestrian">
        <personTrip from="57936323" to="3789368#5" modes="public"/>
    </person>
    <person id="ped196" depart="759.57" type="ped_pedestrian">