<?xml version="1.0" encoding="UTF-8"?>

<!-- generated on 03/07/21 13:23:54 by Eclipse SUMO duarouter Version 1.8.0
<configuration xmlns:xsi="http://www.w3.org/2001/XMLSchema-instance" xsi:noNamespaceSchemaLocation="http://sumo.dlr.de/xsd/duarouterConfiguration.xsd">

    <input>
        <net-file value="C:\Program%20Files%20(x86)\Eclipse\Sumo\tools\2021-03-07-13-23-46\osm.net.xml"/>
        <route-files value="C:\Program%20Files%20(x86)\Eclipse\Sumo\tools\2021-03-07-13-23-46\osm.truck.trips.xml"/>
    </input>

    <output>
        <output-file value="C:\Program%20Files%20(x86)\Eclipse\Sumo\tools\2021-03-07-13-23-46\osm.truck.trips.xml.tmp"/>
        <write-trips value="true"/>
    </output>

    <time>
        <begin value="0"/>
        <end value="3600"/>
    </time>

    <report>
        <no-warnings value="true"/>
        <ignore-errors value="true"/>
        <no-step-log value="true"/>
    </report>

</configuration>
-->

<routes xmlns:xsi="http://www.w3.org/2001/XMLSchema-instance" xsi:noNamespaceSchemaLocation="http://sumo.dlr.de/xsd/routes_file.xsd">
    <vType id="truck_truck" vClass="truck">
        <param key="has.ssm.device" value="true"/>
        <param key="device.ssm.file" value="ssm_north_truck.xml" />
        <param key="device.ssm.probability" value="1"/>
        <param key="device.ssm.deterministic" value="True"/>
        <param key="device.ssm.measures" value="TTC PET"/>
        <param key="device.ssm.thresholds"  value="1.5 2"/>
        <param key="device.ssm.range" value="20"/>
        <param key="device.ssm.extratime" value="0.5"/>
        <param key="device.ssm.trajectories" value="False"/>
        <param key="device.ssm.geo" value="True"/>
        <param key="has.tripinfo.device" value="true"/>
        <param key="device.tripinfo.probability" value="true"/>
    </vType>
    <trip id="truck0" type="truck_truck" depart="0.00" departLane="best" from="4401781#2" to="-125814491#1"/>
    <trip id="truck2" type="truck_truck" depart="13.13" departLane="best" from="67139161#3" to="128450677#3"/>
    <trip id="truck3" type="truck_truck" depart="19.70" departLane="best" from="4908199#0" to="372245388#1"/>
    <trip id="truck4" type="truck_truck" depart="26.27" departLane="best" from="35078311" to="80433528"/>
    <trip id="truck5" type="truck_truck" depart="32.84" departLane="best" from="52321640#2" to="3708463#2"/>
    <trip id="truck6" type="truck_truck" depart="39.40" departLane="best" departSpeed="max" from="14401069#0" to="-4908185"/>
    <trip id="truck7" type="truck_truck" depart="45.97" departLane="best" from="-39179549#1" to="14327271"/>
    <trip id="truck8" type="truck_truck" depart="52.54" departLane="best" from="94838278#0" to="3789251#2"/>
    <trip id="truck10" type="truck_truck" depart="65.67" departLane="best" from="52321644#2" to="125814738#2"/>
    <trip id="truck11" type="truck_truck" depart="72.24" departLane="best" from="585819383#1" to="31004181#4"/>
    <trip id="truck12" type="truck_truck" depart="78.80" departLane="best" from="370381577#0" to="52822147#1"/>
    <trip id="truck13" type="truck_truck" depart="85.37" departLane="best" departSpeed="max" from="18927706#0" to="-52321640#2"/>
    <trip id="truck14" type="truck_truck" depart="91.94" departLane="best" from="94838283#3" to="35060878#1"/>
    <trip id="truck15" type="truck_truck" depart="98.51" departLane="best" from="-35078322#3" to="-30988141"/>
    <trip id="truck16" type="truck_truck" depart="105.07" departLane="best" from="-3708465#4" to="37865098#0"/>
    <trip id="truck17" type="truck_truck" depart="111.64" departLane="best" from="-334138114#5" to="14327272#0"/>
    <trip id="truck18" type="truck_truck" depart="118.21" departLane="best" from="94838283#2" to="35078315#1"/>
    <trip id="truck19" type="truck_truck" depart="124.77" departLane="best" from="31004181#0" to="64270141"/>
    <trip id="truck20" type="truck_truck" depart="131.34" departLane="best" from="33920769#8" to="-41772641"/>
    <trip id="truck21" type="truck_truck" depart="137.91" departLane="best" from="-94838283#4" to="3789251#1"/>
    <trip id="truck22" type="truck_truck" depart="144.48" departLane="best" from="4395982#1" to="35078316#0"/>
    <trip id="truck23" type="truck_truck" depart="151.04" departLane="best" from="-125813720" to="128450676#3"/>
    <trip id="truck25" type="truck_truck" depart="164.18" departLane="best" from="94838283#1" to="3789368#1"/>
    <trip id="truck26" type="truck_truck" depart="170.74" departLane="best" from="129212233#1" to="3708643"/>
    <trip id="truck27" type="truck_truck" depart="177.31" departLane="best" from="-35060879#0" to="3789247#0"/>
    <trip id="truck28" type="truck_truck" depart="183.88" departLane="best" from="-59172069#2" to="3789374#0"/>
    <trip id="truck29" type="truck_truck" depart="190.45" departLane="best" from="4401781#0" to="-4396064#1"/>
    <trip id="truck30" type="truck_truck" depart="197.01" departLane="best" from="-354380392#0" to="244844370#2"/>
    <trip id="truck31" type="truck_truck" depart="203.58" departLane="best" from="397464856#1" to="3789571#0"/>
    <trip id="truck32" type="truck_truck" depart="210.15" departLane="best" from="893972083" to="-354380392#0"/>
    <trip id="truck33" type="truck_truck" depart="216.71" departLane="best" from="-4396159#1" to="30988140"/>
    <trip id="truck34" type="truck_truck" depart="223.28" departLane="best" from="27806076#1" to="4908199#1"/>
    <trip id="truck36" type="truck_truck" depart="236.41" departLane="best" from="7989950#0" to="6273610#3"/>
    <trip id="truck37" type="truck_truck" depart="242.98" departLane="best" from="334138114#0" to="-52321639#2"/>
    <trip id="truck38" type="truck_truck" depart="249.55" departLane="best" from="18927706#1" to="-334138114#1"/>
    <trip id="truck39" type="truck_truck" depart="256.12" departLane="best" from="14401069#4" to="909777279"/>
    <trip id="truck40" type="truck_truck" depart="262.68" departLane="best" from="67139161#3" to="94838283#1"/>
    <trip id="truck41" type="truck_truck" depart="269.25" departLane="best" from="35078321#2" to="39255345#0"/>
    <trip id="truck42" type="truck_truck" depart="275.82" departLane="best" from="75589201" to="3708465#3"/>
    <trip id="truck44" type="truck_truck" depart="288.95" departLane="best" from="3708465#4" to="37722081#0"/>
    <trip id="truck45" type="truck_truck" depart="295.52" departLane="best" from="-59172069#2" to="14401069#8"/>
    <trip id="truck46" type="truck_truck" depart="302.09" departLane="best" from="3789372#7" to="-94838283#2"/>
    <trip id="truck48" type="truck_truck" depart="315.22" departLane="best" from="-35060879#1" to="31004181#3"/>
    <trip id="truck49" type="truck_truck" depart="321.79" departLane="best" from="-35060879#1" to="-52321639#1"/>
    <trip id="truck51" type="truck_truck" depart="334.92" departLane="best" from="3789368#1" to="-125814598"/>
    <trip id="truck52" type="truck_truck" depart="341.49" departLane="best" from="4408221" to="-94838283#1"/>
    <trip id="truck53" type="truck_truck" depart="348.05" departLane="best" from="3789372#1" to="63908781"/>
    <trip id="truck54" type="truck_truck" depart="354.62" departLane="best" from="-3789251#4" to="-3708578#4"/>
    <trip id="truck55" type="truck_truck" depart="361.19" departLane="best" from="-67139161#3" to="372256216#0"/>
    <trip id="truck56" type="truck_truck" depart="367.76" departLane="best" from="3787679" to="-64270137#0"/>
    <trip id="truck57" type="truck_truck" depart="374.32" departLane="best" from="334138114#2" to="556040851#1"/>
    <trip id="truck59" type="truck_truck" depart="387.46" departLane="best" from="4401603#4" to="4908199#0"/>
    <trip id="truck60" type="truck_truck" depart="394.02" departLane="best" departSpeed="max" from="556390402#0" to="-4908185"/>
    <trip id="truck61" type="truck_truck" depart="400.59" departLane="best" from="4395994#0" to="52321642#1"/>
    <trip id="truck62" type="truck_truck" depart="407.16" departLane="best" from="-39178091#0" to="6273612#2"/>
    <trip id="truck63" type="truck_truck" depart="413.73" departLane="best" from="4401781#3" to="52321641#5"/>
    <trip id="truck64" type="truck_truck" depart="420.29" departLane="best" departSpeed="max" from="129212233#0" to="6273612#2"/>
    <trip id="truck65" type="truck_truck" depart="426.86" departLane="best" departSpeed="max" from="4401661#0" to="4908204#1"/>
    <trip id="truck66" type="truck_truck" depart="433.43" departLane="best" from="4401781#3" to="-64270137#2"/>
    <trip id="truck67" type="truck_truck" depart="439.99" departLane="best" from="4396159#1" to="-3708465#0"/>
    <trip id="truck68" type="truck_truck" depart="446.56" departLane="best" from="52321642#1" to="4908185"/>
    <trip id="truck70" type="truck_truck" depart="459.70" departLane="best" from="4401603#4" to="-52321641#5"/>
    <trip id="truck71" type="truck_truck" depart="466.26" departLane="best" from="750330957" to="-75589201"/>
    <trip id="truck72" type="truck_truck" depart="472.83" departLane="best" from="636824322#1" to="-3708578#4"/>
    <trip id="truck73" type="truck_truck" depart="479.40" departLane="best" from="3708838#5" to="35060878#2"/>
    <trip id="truck74" type="truck_truck" depart="485.96" departLane="best" from="147075690" to="3708463#2"/>
    <trip id="truck75" type="truck_truck" depart="492.53" departLane="best" from="-125814461#0" to="6273610#3"/>
    <trip id="truck76" type="truck_truck" depart="499.10" departLane="best" from="3789372#2" to="128450677#3"/>
    <trip id="truck77" type="truck_truck" depart="505.66" departLane="best" from="127546529#0" to="48985672"/>
    <trip id="truck78" type="truck_truck" depart="512.23" departLane="best" from="39255348#1" to="-94838283#2"/>
    <trip id="truck79" type="truck_truck" depart="518.80" departLane="best" from="125814738#1" to="18927706#3"/>
    <trip id="truck80" type="truck_truck" depart="525.37" departLane="best" from="18927706#2" to="-94838278#3"/>
    <trip id="truck81" type="truck_truck" depart="531.93" departLane="best" from="125814461#0" to="35078322#3"/>
    <trip id="truck82" type="truck_truck" depart="538.50" departLane="best" from="-125813720" to="-8403822#0"/>
    <trip id="truck83" type="truck_truck" depart="545.07" departLane="best" from="27806076#1" to="-52321639#2"/>
    <trip id="truck84" type="truck_truck" depart="551.63" departLane="best" from="317027066#2" to="529166755"/>
    <trip id="truck85" type="truck_truck" depart="558.20" departLane="best" from="4401603#4" to="-39255350"/>
    <trip id="truck86" type="truck_truck" depart="564.77" departLane="best" from="37722081#1" to="128450677#3"/>
    <trip id="truck87" type="truck_truck" depart="571.34" departLane="best" from="4908199#1" to="-35060879#0"/>
    <trip id="truck88" type="truck_truck" depart="577.90" departLane="best" from="-48859797#0" to="3791905#3"/>
    <trip id="truck89" type="truck_truck" depart="584.47" departLane="best" from="33920769#1" to="-6273600#0"/>
    <trip id="truck90" type="truck_truck" depart="591.04" departLane="best" from="3789368#2" to="-125814491#0"/>
    <trip id="truck91" type="truck_truck" depart="597.60" departLane="best" from="-41772641" to="67139161#4"/>
    <trip id="truck92" type="truck_truck" depart="604.17" departLane="best" from="31004181#2" to="4396064#0"/>
    <trip id="truck93" type="truck_truck" depart="610.74" departLane="best" from="3789372#4" to="913681361"/>
    <trip id="truck94" type="truck_truck" depart="617.30" departLane="best" from="3708465#5" to="64270139#0"/>
    <trip id="truck96" type="truck_truck" depart="630.44" departLane="best" from="48482641#0" to="35078322#3"/>
    <trip id="truck97" type="truck_truck" depart="637.01" departLane="best" departSpeed="max" from="556390402#0" to="39994849#1"/>
    <trip id="truck98" type="truck_truck" depart="643.57" departLane="best" from="317027067" to="-63908781"/>
    <trip id="truck99" type="truck_truck" depart="650.14" departLane="best" from="432565295#1" to="35060881"/>
    <trip id="truck100" type="truck_truck" depart="656.71" departLane="best" from="372256221" to="-64361352"/>
    <trip id="truck101" type="truck_truck" depart="663.27" departLane="best" from="-67139161#3" to="128450676#0"/>
    <trip id="truck102" type="truck_truck" depart="669.84" departLane="best" from="-52321644#2" to="3791905#3"/>
    <trip id="truck103" type="truck_truck" depart="676.41" departLane="best" from="242586600" to="556040851#1"/>
    <trip id="truck104" type="truck_truck" depart="682.98" departLane="best" from="370381577#0" to="3791905#3"/>
    <trip id="truck105" type="truck_truck" depart="689.54" departLane="best" from="14401069#6" to="-125814491#1"/>
    <trip id="truck106" type="truck_truck" depart="696.11" departLane="best" from="13871198#1" to="404268319"/>
    <trip id="truck107" type="truck_truck" depart="702.68" departLane="best" departSpeed="max" from="25631272#0" to="-13871198#1"/>
    <trip id="truck108" type="truck_truck" depart="709.24" departLane="best" departSpeed="max" from="129212233#0" to="3789571#4"/>
    <trip id="truck109" type="truck_truck" depart="715.81" departLane="best" from="18927706#4" to="-39179549#1"/>
    <trip id="truck110" type="truck_truck" depart="722.38" departLane="best" departSpeed="max" from="18927706#0" to="361409608#1"/>
    <trip id="truck111" type="truck_truck" depart="728.94" departLane="best" from="-3789251#5" to="31004181#7"/>
    <trip id="truck112" type="truck_truck" depart="735.51" departLane="best" from="-317027066#0" to="14327271"/>
    <trip id="truck113" type="truck_truck" depart="742.08" departLane="best" from="-52321639#2" to="128450677#1"/>
    <trip id="truck114" type="truck_truck" depart="748.65" departLane="best" from="-636824321" to="-35078314#2"/>
    <trip id="truck116" type="truck_truck" depart="761.78" departLane="best" from="94838283#4" to="135582840#3"/>
    <trip id="truck118" type="truck_truck" depart="774.91" departLane="best" from="401912432#4" to="-3708578#3"/>
    <trip id="truck119" type="truck_truck" depart="781.48" departLane="best" from="4408238#1" to="750330944"/>
    <trip id="truck120" type="truck_truck" depart="788.05" departLane="best" from="-3708465#3" to="-135582840#3"/>
    <trip id="truck121" type="truck_truck" depart="794.62" departLane="best" from="125863788" to="3789571#2"/>
    <trip id="truck122" type="truck_truck" depart="801.18" departLane="best" from="3789578" to="37865098#0"/>
    <trip id="truck123" type="truck_truck" depart="807.75" departLane="best" from="-3708463#0" to="41772644#6"/>
    <trip id="truck124" type="truck_truck" depart="814.32" departLane="best" from="4908199#2" to="372245387#1"/>
    <trip id="truck125" type="truck_truck" depart="820.88" departLane="best" from="24807207#0" to="13907386"/>
    <trip id="truck126" type="truck_truck" depart="827.45" departLane="best" from="-3708463#2" to="682430068#1"/>
    <trip id="truck127" type="truck_truck" depart="834.02" departLane="best" from="39994845" to="750330944"/>
    <trip id="truck128" type="truck_truck" depart="840.59" departLane="best" from="-64361352" to="4401603#0"/>
    <trip id="truck129" type="truck_truck" depart="847.15" departLane="best" from="35078314#1" to="334138114#4"/>
    <trip id="truck130" type="truck_truck" depart="853.72" departLane="best" departSpeed="max" from="25631272#0" to="39255350"/>
    <trip id="truck131" type="truck_truck" depart="860.29" departLane="best" from="48482641#0" to="-35078316#2"/>
    <trip id="truck132" type="truck_truck" depart="866.85" departLane="best" from="14401069#4" to="-13871198#1"/>
    <trip id="truck134" type="truck_truck" depart="879.99" departLane="best" from="38587899#1" to="-67139161#3"/>
    <trip id="truck135" type="truck_truck" depart="886.55" departLane="best" from="-125814738#2" to="64270137#2"/>
    <trip id="truck136" type="truck_truck" depart="893.12" departLane="best" from="334138114#2" to="40641511"/>
    <trip id="truck137" type="truck_truck" depart="899.69" departLane="best" from="334138114#4" to="43538582"/>
    <trip id="truck138" type="truck_truck" depart="906.26" departLane="best" from="3791905#0" to="125814461#0"/>
    <trip id="truck139" type="truck_truck" depart="912.82" departLane="best" from="361409609" to="317027066#2"/>
    <trip id="truck140" type="truck_truck" depart="919.39" departLane="best" from="401912432#3" to="128450677#3"/>
    <trip id="truck141" type="truck_truck" depart="925.96" departLane="best" from="39178091#0" to="-64270139#1"/>
    <trip id="truck142" type="truck_truck" depart="932.52" departLane="best" from="35078311" to="41772639#1"/>
    <trip id="truck143" type="truck_truck" depart="939.09" departLane="best" departSpeed="max" from="317127417" to="39255348#2"/>
    <trip id="truck144" type="truck_truck" depart="945.66" departLane="best" from="80439756#2" to="35078314#1"/>
    <trip id="truck145" type="truck_truck" depart="952.23" departLane="best" from="-48859797#0" to="-52321641#5"/>
    <trip id="truck146" type="truck_truck" depart="958.79" departLane="best" from="35060881" to="-64361352"/>
    <trip id="truck147" type="truck_truck" depart="965.36" departLane="best" from="52321642#1" to="3708463#0"/>
    <trip id="truck149" type="truck_truck" depart="978.49" departLane="best" from="35078322#4" to="125813720"/>
    <trip id="truck150" type="truck_truck" depart="985.06" departLane="best" from="94838283#0" to="-372226859#0"/>
    <trip id="truck151" type="truck_truck" depart="991.63" departLane="best" from="4401603#0" to="-52321641#4"/>
    <trip id="truck152" type="truck_truck" depart="998.19" departLane="best" from="35060878#0" to="30988141"/>
    <trip id="truck153" type="truck_truck" depart="1004.76" departLane="best" from="27806076#1" to="4908199#0"/>
    <trip id="truck154" type="truck_truck" depart="1011.33" departLane="best" from="3789368#6" to="-39178091#0"/>
    <trip id="truck155" type="truck_truck" depart="1017.90" departLane="best" from="3708465#4" to="-909777279"/>
    <trip id="truck156" type="truck_truck" depart="1024.46" departLane="best" from="-52321644#2" to="39178091#1"/>
    <trip id="truck157" type="truck_truck" depart="1031.03" departLane="best" from="4396159#1" to="37865098#0"/>
    <trip id="truck158" type="truck_truck" depart="1037.60" departLane="best" from="474590054" to="-35060878#4"/>
    <trip id="truck159" type="truck_truck" depart="1044.16" departLane="best" from="-94838278#0" to="-372256216#4"/>
    <trip id="truck160" type="truck_truck" depart="1050.73" departLane="best" from="64270035#0" to="33969753#2"/>
    <trip id="truck162" type="truck_truck" depart="1063.87" departLane="best" from="48985672" to="3708463#1"/>
    <trip id="truck163" type="truck_truck" depart="1070.43" departLane="best" from="64270139#0" to="94838283#4"/>
    <trip id="truck164" type="truck_truck" depart="1077.00" departLane="best" from="334138114#5" to="-35078322#2"/>
    <trip id="truck165" type="truck_truck" depart="1083.57" departLane="best" from="135582944" to="128450677#3"/>
    <trip id="truck166" type="truck_truck" depart="1090.13" departLane="best" from="-94838278#0" to="64270137#0"/>
    <trip id="truck167" type="truck_truck" depart="1096.70" departLane="best" from="4401787" to="35078322#4"/>
    <trip id="truck168" type="truck_truck" depart="1103.27" departLane="best" from="913681361" to="3789372#1"/>
    <trip id="truck169" type="truck_truck" depart="1109.84" departLane="best" from="-4396064#1" to="13871250"/>
    <trip id="truck170" type="truck_truck" depart="1116.40" departLane="best" from="41772643" to="37865098#0"/>
    <trip id="truck171" type="truck_truck" depart="1122.97" departLane="best" from="-372256216#3" to="80433528"/>
    <trip id="truck172" type="truck_truck" depart="1129.54" departLane="best" from="3716925" to="-563891693"/>
    <trip id="truck173" type="truck_truck" depart="1136.10" departLane="best" from="-39178107#1" to="35078324#0"/>
    <trip id="truck174" type="truck_truck" depart="1142.67" departLane="best" from="94838278#3" to="585819383#1"/>
    <trip id="truck175" type="truck_truck" depart="1149.24" departLane="best" from="48482641#1" to="33921278#1"/>
    <trip id="truck176" type="truck_truck" depart="1155.80" departLane="best" from="-67139161#4" to="445383138"/>
    <trip id="truck177" type="truck_truck" depart="1162.37" departLane="best" from="8403822#1" to="-6273600#0"/>
    <trip id="truck178" type="truck_truck" depart="1168.94" departLane="best" from="35078320" to="14327272#0"/>
    <trip id="truck179" type="truck_truck" depart="1175.51" departLane="best" from="-7989950#0" to="43538582"/>
    <trip id="truck180" type="truck_truck" depart="1182.07" departLane="best" from="-8403822#0" to="-94838283#1"/>
    <trip id="truck181" type="truck_truck" depart="1188.64" departLane="best" from="334138114#3" to="-3789372#3"/>
    <trip id="truck182" type="truck_truck" depart="1195.21" departLane="best" from="35078314#1" to="129774671#0"/>
    <trip id="truck183" type="truck_truck" depart="1201.77" departLane="best" from="-4396159#0" to="3791905#3"/>
    <trip id="truck184" type="truck_truck" depart="1208.34" departLane="best" from="4395970" to="-292662748"/>
    <trip id="truck185" type="truck_truck" depart="1214.91" departLane="best" from="401912432#2" to="39178091#0"/>
    <trip id="truck186" type="truck_truck" depart="1221.48" departLane="best" from="3708463#2" to="52321639#3"/>
    <trip id="truck187" type="truck_truck" depart="1228.04" departLane="best" from="52321644#0" to="27806076#0"/>
    <trip id="truck188" type="truck_truck" depart="1234.61" departLane="best" from="35060878#3" to="31004181#2"/>
    <trip id="truck189" type="truck_truck" depart="1241.18" departLane="best" from="39255348#3" to="18927706#4"/>
    <trip id="truck190" type="truck_truck" depart="1247.74" departLane="best" from="31028274" to="7989950#0"/>
    <trip id="truck191" type="truck_truck" depart="1254.31" departLane="best" from="4908204#1" to="4908185"/>
    <trip id="truck192" type="truck_truck" depart="1260.88" departLane="best" from="14401069#6" to="127200696"/>
    <trip id="truck193" type="truck_truck" depart="1267.44" departLane="best" from="52321642#1" to="-14331347"/>
    <trip id="truck194" type="truck_truck" depart="1274.01" departLane="best" from="-35060878#3" to="3789247#0"/>
    <trip id="truck196" type="truck_truck" depart="1287.15" departLane="best" from="-360319695#0" to="3789250#0"/>
    <trip id="truck197" type="truck_truck" depart="1293.71" departLane="best" from="52321642#1" to="27806076#2"/>
    <trip id="truck198" type="truck_truck" depart="1300.28" departLane="best" from="-30988141" to="4395982#0"/>
    <trip id="truck199" type="truck_truck" depart="1306.85" departLane="best" from="-6273600#0" to="585819383#1"/>
    <trip id="truck200" type="truck_truck" depart="1313.41" departLane="best" from="-3789372#1" to="31004181#5"/>
    <trip id="truck201" type="truck_truck" depart="1319.98" departLane="best" from="-125814738#1" to="4396159#0"/>
    <trip id="truck202" type="truck_truck" depart="1326.55" departLane="best" from="-39178107#0" to="27806076#1"/>
    <trip id="truck203" type="truck_truck" depart="1333.12" departLane="best" from="135582840#3" to="3708643"/>
    <trip id="truck204" type="truck_truck" depart="1339.68" departLane="best" from="-6273612#5" to="48859797#0"/>
    <trip id="truck205" type="truck_truck" depart="1346.25" departLane="best" from="-48985674#0" to="14327272#0"/>
    <trip id="truck206" type="truck_truck" depart="1352.82" departLane="best" departSpeed="max" from="317127417" to="-52324406"/>
    <trip id="truck207" type="truck_truck" depart="1359.38" departLane="best" from="-75589201" to="361409608#3"/>
    <trip id="truck208" type="truck_truck" depart="1365.95" departLane="best" from="-310196058" to="372256216#1"/>
    <trip id="truck209" type="truck_truck" depart="1372.52" departLane="best" from="-893972084" to="4395994#0"/>
    <trip id="truck210" type="truck_truck" depart="1379.09" departLane="best" from="3789247#0" to="37722081#1"/>
    <trip id="truck212" type="truck_truck" depart="1392.22" departLane="best" from="27806076#0" to="3708465#3"/>
    <trip id="truck213" type="truck_truck" depart="1398.79" departLane="best" from="-94838283#1" to="39994849#3"/>
    <trip id="truck214" type="truck_truck" depart="1405.35" departLane="best" from="35078314#1" to="7989950#2"/>
    <trip id="truck215" type="truck_truck" depart="1411.92" departLane="best" from="35060879#1" to="585819383#1"/>
    <trip id="truck217" type="truck_truck" depart="1425.05" departLane="best" from="129212233#1" to="-3708578#4"/>
    <trip id="truck218" type="truck_truck" depart="1431.62" departLane="best" from="750249501" to="-3789252#2"/>
    <trip id="truck219" type="truck_truck" depart="1438.19" departLane="best" from="39255348#4" to="8403822#0"/>
    <trip id="truck220" type="truck_truck" depart="1444.76" departLane="best" from="750330957" to="4396159#0"/>
    <trip id="truck222" type="truck_truck" depart="1457.89" departLane="best" from="3789374#0" to="3708578#3"/>
    <trip id="truck224" type="truck_truck" depart="1471.02" departLane="best" from="-3708465#3" to="-52321644#2"/>
    <trip id="truck225" type="truck_truck" depart="1477.59" departLane="best" from="-52321641#3" to="-334138114#5"/>
    <trip id="truck228" type="truck_truck" depart="1497.29" departLane="best" from="125814491#0" to="33920769#7"/>
    <trip id="truck229" type="truck_truck" depart="1503.86" departLane="best" from="-354380392#0" to="52321644#1"/>
    <trip id="truck230" type="truck_truck" depart="1510.43" departLane="best" from="233674059" to="-360319695#0"/>
    <trip id="truck232" type="truck_truck" depart="1523.56" departLane="best" from="-370381577#0" to="3789578"/>
    <trip id="truck233" type="truck_truck" depart="1530.13" departLane="best" from="13871252#0" to="147075690"/>
    <trip id="truck234" type="truck_truck" depart="1536.69" departLane="best" from="4396159#1" to="-6273600#0"/>
    <trip id="truck235" type="truck_truck" depart="1543.26" departLane="best" from="-4908185" to="-52321639#3"/>
    <trip id="truck236" type="truck_truck" depart="1549.83" departLane="best" from="52321641#5" to="128450677#2"/>
    <trip id="truck237" type="truck_truck" depart="1556.40" departLane="best" from="-125814461#1" to="4908185"/>
    <trip id="truck239" type="truck_truck" depart="1569.53" departLane="best" from="-41772639#1" to="-317027066#1"/>
    <trip id="truck240" type="truck_truck" depart="1576.10" departLane="best" from="4395982#0" to="35060878#4"/>
    <trip id="truck242" type="truck_truck" depart="1589.23" departLane="best" from="35060878#0" to="31004181#3"/>
    <trip id="truck243" type="truck_truck" depart="1595.80" departLane="best" from="750249502" to="-334138114#3"/>
    <trip id="truck244" type="truck_truck" depart="1602.37" departLane="best" departSpeed="max" from="317127417" to="147077493#2"/>
    <trip id="truck245" type="truck_truck" depart="1608.93" departLane="best" from="3789572" to="33920769#2"/>
    <trip id="truck246" type="truck_truck" depart="1615.50" departLane="best" from="585819381#0" to="-35060879#1"/>
    <trip id="truck247" type="truck_truck" depart="1622.07" departLane="best" from="-35060878#1" to="-64361352"/>
    <trip id="truck248" type="truck_truck" depart="1628.63" departLane="best" from="12854626#0" to="94838283#1"/>
    <trip id="truck249" type="truck_truck" depart="1635.20" departLane="best" from="35060879#1" to="31004181#0"/>
    <trip id="truck250" type="truck_truck" depart="1641.77" departLane="best" from="3708838#4" to="-360319695#0"/>
    <trip id="truck251" type="truck_truck" depart="1648.34" departLane="best" from="30988141" to="-52321642#0"/>
    <trip id="truck252" type="truck_truck" depart="1654.90" departLane="best" from="129212233#1" to="31004181#0"/>
    <trip id="truck253" type="truck_truck" depart="1661.47" departLane="best" departSpeed="max" from="14401069#0" to="-3789372#6"/>
    <trip id="truck254" type="truck_truck" depart="1668.04" departLane="best" from="48482641#0" to="-35078322#4"/>
    <trip id="truck255" type="truck_truck" depart="1674.60" departLane="best" from="-354380392#0" to="39994846#0"/>
    <trip id="truck256" type="truck_truck" depart="1681.17" departLane="best" from="3708463#0" to="360319695#0"/>
    <trip id="truck257" type="truck_truck" depart="1687.74" departLane="best" from="39255348#2" to="75589201"/>
    <trip id="truck258" type="truck_truck" depart="1694.30" departLane="best" from="3708643" to="135582842"/>
    <trip id="truck259" type="truck_truck" depart="1700.87" departLane="best" from="361409608#2" to="-52321639#1"/>
    <trip id="truck260" type="truck_truck" depart="1707.44" departLane="best" from="6273612#0" to="4408221"/>
    <trip id="truck261" type="truck_truck" depart="1714.01" departLane="best" from="-64270139#1" to="-41772643"/>
    <trip id="truck263" type="truck_truck" depart="1727.14" departLane="best" from="52321641#5" to="361409608#3"/>
    <trip id="truck264" type="truck_truck" depart="1733.71" departLane="best" from="18927706#1" to="-3789252#3"/>
    <trip id="truck265" type="truck_truck" depart="1740.27" departLane="best" from="37722081#1" to="-13871230#0"/>
    <trip id="truck266" type="truck_truck" depart="1746.84" departLane="best" from="4395970" to="361409609"/>
    <trip id="truck267" type="truck_truck" depart="1753.41" departLane="best" from="3789374#1" to="-64270139#1"/>
    <trip id="truck268" type="truck_truck" depart="1759.98" departLane="best" from="27806076#0" to="-64270141"/>
    <trip id="truck269" type="truck_truck" depart="1766.54" departLane="best" from="3789571#0" to="33920769#0"/>
    <trip id="truck270" type="truck_truck" depart="1773.11" departLane="best" from="-63908781" to="128450677#2"/>
    <trip id="truck271" type="truck_truck" depart="1779.68" departLane="best" from="-125814598" to="39994849#3"/>
    <trip id="truck272" type="truck_truck" depart="1786.24" departLane="best" from="39178091#1" to="33969753#2"/>