<?xml version="1.0" encoding="UTF-8"?>

<!-- generated on 03/07/21 13:23:50 by Eclipse SUMO netconvert Version 1.8.0
<configuration xmlns:xsi="http://www.w3.org/2001/XMLSchema-instance" xsi:noNamespaceSchemaLocation="http://sumo.dlr.de/xsd/netconvertConfiguration.xsd">

    <input>
        <type-files value="C:\Program%20Files%20(x86)\Eclipse\Sumo\data\typemap\osmNetconvert.typ.xml,C:\Program%20Files%20(x86)\Eclipse\Sumo\data\typemap\osmNetconvertUrbanDe.typ.xml,C:\Program%20Files%20(x86)\Eclipse\Sumo\data\typemap\osmNetconvertPedestrians.typ.xml,C:\Program%20Files%20(x86)\Eclipse\Sumo\data\typemap\osmNetconvertBicycle.typ.xml"/>
        <osm-files value="osm_bbox.osm.xml"/>
    </input>

    <output>
        <output-file value="osm.net.xml"/>
        <output.street-names value="true"/>
        <output.original-names value="true"/>
        <ptstop-output value="osm_stops.add.xml"/>
        <ptline-output value="osm_ptlines.xml"/>
    </output>

    <projection>
        <proj.utm value="true"/>
    </projection>

    <processing>
        <geometry.remove value="true"/>
        <roundabouts.guess value="true"/>
        <lefthand value="true"/>
    </processing>

    <tls_building>
        <tls.discard-simple value="true"/>
        <tls.join value="true"/>
        <tls.guess-signals value="true"/>
        <tls.default-type value="actuated"/>
    </tls_building>

    <ramp_guessing>
        <ramps.guess value="true"/>
    </ramp_guessing>

    <junctions>
        <junctions.join value="true"/>
        <junctions.corner-detail value="5"/>
    </junctions>

    <pedestrian>
        <crossings.guess value="true"/>
    </pedestrian>

    <railway>
        <railway.topology.repair value="true"/>
        <railway.topology.repair.stop-turn value="true"/>
    </railway>

    <report>
        <verbose value="true"/>
        <aggregate-warnings value="5"/>
    </report>

</configuration>
-->

<net version="1.6" junctionCornerDetail="5" walkingareas="true" lefthand="true" limitTurnSpeed="5.50" xmlns:xsi="http://www.w3.org/2001/XMLSchema-instance" xsi:noNamespaceSchemaLocation="http://sumo.dlr.de/xsd/net_file.xsd">

    <location netOffset="-680259.59,-5913893.86" convBoundary="0.00,-0.00,2171.31,1277.74" origBoundary="-6.291885,53.340082,-6.259214,53.354463" projParameter="+proj=utm +zone=29 +ellps=WGS84 +datum=WGS84 +units=m +no_defs"/>

    <type id="cycleway.lane" allow="bicycle" bikeLaneWidth="1.00"/>
    <type id="cycleway.lane|highway.secondary" priority="11" numLanes="1" speed="13.89" disallow="pedestrian tram rail_urban rail rail_electric rail_fast ship" oneway="0" sidewalkWidth="3.00" bikeLaneWidth="1.00"/>
    <type id="cycleway.lane|highway.tertiary" priority="10" numLanes="1" speed="13.89" disallow="pedestrian tram rail_urban rail rail_electric rail_fast ship" oneway="0" sidewalkWidth="3.00" bikeLaneWidth="1.00"/>
    <type id="cycleway.lane|highway.unclassified" priority="4" numLanes="1" speed="13.89" disallow="pedestrian tram rail_urban rail rail_electric rail_fast ship" oneway="0" sidewalkWidth="2.00" bikeLaneWidth="1.00"/>
    <type id="cycleway.opposite_lane" allow="bicycle" bikeLaneWidth="1.00"/>
    <type id="cycleway.opposite_lane|highway.secondary" priority="11" numLanes="1" speed="13.89" disallow="pedestrian tram rail_urban rail rail_electric rail_fast ship" oneway="0" sidewalkWidth="3.00" bikeLaneWidth="1.00"/>
    <type id="cycleway.opposite_lane|highway.tertiary" priority="10" numLanes="1" speed="13.89" disallow="pedestrian tram rail_urban rail rail_electric rail_fast ship" oneway="0" sidewalkWidth="3.00" bikeLaneWidth="1.00"/>
    <type id="cycleway.opposite_lane|highway.unclassified" priority="4" numLanes="1" speed="13.89" disallow="pedestrian tram rail_urban rail rail_electric rail_fast ship" oneway="0" sidewalkWidth="2.00" bikeLaneWidth="1.00"/>
    <type id="cycleway.opposite_track" allow="bicycle" bikeLaneWidth="1.50"/>
    <type id="cycleway.opposite_track|highway.tertiary" priority="10" numLanes="1" speed="13.89" disallow="pedestrian tram rail_urban rail rail_electric rail_fast ship" oneway="0" sidewalkWidth="3.00" bikeLaneWidth="1.50"/>
    <type id="cycleway.track" allow="bicycle" bikeLaneWidth="1.50"/>
    <type id="cycleway.track|highway.secondary" priority="11" numLanes="1" speed="13.89" disallow="pedestrian tram rail_urban rail rail_electric rail_fast ship" oneway="0" sidewalkWidth="3.00" bikeLaneWidth="1.50"/>
    <type id="highway.bridleway" priority="1" numLanes="1" speed="2.78" allow="pedestrian" oneway="1" width="2.00"/>
    <type id="highway.bus_guideway" priority="1" numLanes="1" speed="13.89" allow="bus" oneway="1"/>
    <type id="highway.cycleway" priority="1" numLanes="1" speed="8.33" allow="bicycle" oneway="0" width="1.00"/>
    <type id="highway.footway" priority="1" numLanes="1" speed="2.78" allow="pedestrian" oneway="1" width="2.00"/>
    <type id="highway.ford" priority="1" numLanes="1" speed="2.78" allow="army" oneway="0"/>
    <type id="highway.living_street" priority="2" numLanes="1" speed="2.78" disallow="tram rail_urban rail rail_electric rail_fast ship" oneway="0"/>
    <type id="highway.motorway" priority="14" numLanes="2" speed="27.78" allow="private emergency authority army vip passenger hov taxi bus coach delivery truck trailer motorcycle evehicle custom1 custom2" oneway="1"/>
    <type id="highway.motorway_link" priority="9" numLanes="1" speed="16.67" allow="private emergency authority army vip passenger hov taxi bus coach delivery truck trailer motorcycle evehicle custom1 custom2" oneway="1"/>
    <type id="highway.path" priority="1" numLanes="1" speed="2.78" allow="pedestrian bicycle" oneway="0" width="2.00"/>
    <type id="highway.pedestrian" priority="1" numLanes="1" speed="2.78" allow="pedestrian" oneway="1" width="2.00"/>
    <type id="highway.primary" priority="12" numLanes="2" speed="13.89" disallow="pedestrian tram rail_urban rail rail_electric rail_fast ship" oneway="0" sidewalkWidth="3.00"/>
    <type id="highway.primary_link" priority="7" numLanes="1" speed="13.89" disallow="pedestrian tram rail_urban rail rail_electric rail_fast ship" oneway="0" sidewalkWidth="3.00"/>
    <type id="highway.raceway" priority="15" numLanes="2" speed="83.33" allow="vip" oneway="0"/>
    <type id="highway.residential" priority="3" numLanes="1" speed="13.89" disallow="pedestrian tram rail_urban rail rail_electric rail_fast ship" oneway="0" sidewalkWidth="2.00"/>
    <type id="highway.secondary" priority="11" numLanes="1" speed="13.89" disallow="pedestrian tram rail_urban rail rail_electric rail_fast ship" oneway="0" sidewalkWidth="3.00"/>
    <type id="highway.secondary_link" priority="6" numLanes="1" speed="13.89" disallow="pedestrian tram rail_urban rail rail_electric rail_fast ship" oneway="0" sidewalkWidth="3.00"/>
    <type id="highway.service" priority="1" numLanes="1" speed="5.56" allow="pedestrian delivery bicycle" oneway="0"/>
    <type id="highway.stairs" priority="1" numLanes="1" speed="1.39" allow="pedestrian" oneway="1" width="2.00"/>
    <type id="highway.step" priority="1" numLanes="1" speed="1.39" allow="pedestrian" oneway="1" width="2.00"/>
    <type id="highway.steps" priority="1" numLanes="1" speed="1.39" allow="pedestrian" oneway="1" width="2.00"/>
    <type id="highway.tertiary" priority="10" numLanes="1" speed="13.89" disallow="pedestrian tram rail_urban rail rail_electric rail_fast ship" oneway="0" sidewalkWidth="3.00"/>
    <type id="highway.tertiary_link" priority="5" numLanes="1" speed="13.89" disallow="pedestrian tram rail_urban rail rail_electric rail_fast ship" oneway="0" sidewalkWidth="2.00"/>
    <type id="highway.track" priority="1" numLanes="1" speed="5.56" allow="pedestrian motorcycle moped bicycle" oneway="0"/>
    <type id="highway.trunk" priority="13" numLanes="2" speed="13.89" disallow="pedestrian bicycle tram rail_urban rail rail_electric rail_fast ship" oneway="0"/>
    <type id="highway.trunk_link" priority="8" numLanes="1" speed="13.89" disallow="pedestrian bicycle tram rail_urban rail rail_electric rail_fast ship" oneway="0"/>
    <type id="highway.unclassified" priority="4" numLanes="1" speed="13.89" disallow="pedestrian tram rail_urban rail rail_electric rail_fast ship" oneway="0" sidewalkWidth="2.00"/>
    <type id="highway.unsurfaced" priority="1" numLanes="1" speed="8.33" disallow="tram rail_urban rail rail_electric rail_fast ship" oneway="0"/>
    <type id="railway.highspeed" priority="21" numLanes="1" speed="69.44" allow="rail_fast" oneway="1"/>
    <type id="railway.light_rail" priority="19" numLanes="1" speed="27.78" allow="rail_urban" oneway="1"/>
    <type id="railway.preserved" priority="16" numLanes="1" speed="27.78" allow="rail" oneway="1"/>
    <type id="railway.rail" priority="20" numLanes="1" speed="44.44" allow="rail" oneway="1"/>
    <type id="railway.subway" priority="18" numLanes="1" speed="27.78" allow="rail_urban" oneway="1"/>
    <type id="railway.tram" priority="17" numLanes="1" speed="13.89" allow="tram" oneway="1"/>

    <edge id=":1008271033_0" function="internal">
        <lane id=":1008271033_0_0" index="0" disallow="pedestrian tram rail_urban rail rail_electric rail_fast ship" speed="8.33" length="5.01" shape="804.12,610.21 803.60,605.23"/>
        <lane id=":1008271033_0_1" index="1" disallow="pedestrian tram rail_urban rail rail_electric rail_fast ship" speed="8.33" length="5.01" shape="800.93,610.54 800.42,605.56"/>
        <lane id=":1008271033_0_2" index="2" disallow="pedestrian tram rail_urban rail rail_electric rail_fast ship" speed="8.33" length="5.01" shape="797.75,610.87 797.23,605.88"/>
    </edge>
    <edge id=":1008271033_w0" function="walkingarea">
        <lane id=":1008271033_w0_0" index="0" allow="pedestrian" speed="1.00" length="4.27" width="3.00" shape="805.19,605.06 808.18,604.75 809.82,606.08 810.04,608.07 808.69,609.73 805.71,610.04"/>
    </edge>
    <edge id=":104517922_0" function="internal">
        <lane id=":104517922_0_0" index="0" disallow="pedestrian tram rail_urban rail rail_electric rail_fast ship" speed="3.65" length="4.67" shape="775.39,1068.07 776.42,1069.09 777.28,1069.32 777.98,1068.76 778.52,1067.43"/>
    </edge>
    <edge id=":104517922_w0" function="walkingarea">
        <lane id=":104517922_w0_0" index="0" allow="pedestrian" speed="1.00" length="9.40" width="3.00" shape="780.09,1067.10 783.03,1066.49 770.88,1069.00 773.82,1068.40"/>
    </edge>
    <edge id=":1100940547_0" function="internal">
        <lane id=":1100940547_0_0" index="0" disallow="pedestrian tram rail_urban rail rail_electric rail_fast ship" speed="7.52" length="12.67" shape="309.43,885.25 307.10,888.76 304.69,890.84 302.19,891.48 299.61,890.69"/>
    </edge>
    <edge id=":1100940547_1" function="internal">
        <lane id=":1100940547_1_0" index="0" disallow="pedestrian tram rail_urban rail rail_electric rail_fast ship" speed="8.33" length="17.53" shape="309.43,885.25 307.23,890.45 306.74,894.77 307.94,898.23 310.83,900.81"/>
    </edge>
    <edge id=":1100940547_2" function="internal">
        <lane id=":1100940547_2_0" index="0" disallow="pedestrian tram rail_urban rail rail_electric rail_fast ship" speed="3.86" length="5.48" shape="309.43,885.25 308.68,886.77 308.75,887.82 309.62,888.39 311.31,888.50"/>
    </edge>
    <edge id=":1100940547_3" function="internal">
        <lane id=":1100940547_3_0" index="0" disallow="pedestrian tram rail_urban rail rail_electric rail_fast ship" speed="7.12" length="10.80" shape="312.42,898.03 310.56,896.41 309.75,894.28 310.00,891.64 311.31,888.50"/>
    </edge>
    <edge id=":1100940547_4" function="internal">
        <lane id=":1100940547_4_0" index="0" disallow="pedestrian tram rail_urban rail rail_electric rail_fast ship" speed="8.33" length="14.77" shape="312.42,898.03 299.61,890.69"/>
    </edge>
    <edge id=":1100940547_5" function="internal">
        <lane id=":1100940547_5_0" index="0" disallow="pedestrian tram rail_urban rail rail_electric rail_fast ship" speed="3.65" length="4.67" shape="312.42,898.03 310.99,898.13 310.24,898.62 310.19,899.52 310.83,900.81"/>
    </edge>
    <edge id=":1100940547_6" function="internal">
        <lane id=":1100940547_6_0" index="0" disallow="pedestrian tram rail_urban rail rail_electric rail_fast ship" speed="8.33" length="14.77" shape="298.02,893.46 310.83,900.81"/>
    </edge>
    <edge id=":1100940547_7" function="internal">
        <lane id=":1100940547_7_0" index="0" disallow="pedestrian tram rail_urban rail rail_electric rail_fast ship" speed="8.33" length="16.24" shape="298.02,893.46 301.89,894.89 305.39,894.55 308.53,892.41 311.31,888.50"/>
    </edge>
    <edge id=":1100940547_8" function="internal">
        <lane id=":1100940547_8_0" index="0" disallow="pedestrian tram rail_urban rail rail_electric rail_fast ship" speed="3.65" length="4.67" shape="298.02,893.46 299.46,893.36 300.20,892.87 300.25,891.98 299.61,890.69"/>
    </edge>
    <edge id=":1100940547_c0" function="crossing" crossingEdges="94838283#0 -94838283#0">
        <lane id=":1100940547_c0_0" index="0" allow="pedestrian" speed="1.00" length="6.69" width="4.00" shape="311.77,891.02 307.07,886.25"/>
    </edge>
    <edge id=":1100940547_c1" function="crossing" crossingEdges="94838278#1 -94838278#1">
        <lane id=":1100940547_c1_0" index="0" allow="pedestrian" speed="1.00" length="6.40" width="4.00" shape="308.30,901.20 311.48,895.65"/>
    </edge>
    <edge id=":1100940547_c2" function="crossing" crossingEdges="-94838278#0 94838278#0">
        <lane id=":1100940547_c2_0" index="0" allow="pedestrian" speed="1.00" length="6.40" width="4.00" shape="302.14,890.29 298.96,895.84"/>
    </edge>
    <edge id=":1100940547_w0" function="walkingarea">
        <lane id=":1100940547_w0_0" index="0" allow="pedestrian" speed="1.00" length="6.26" width="4.00" shape="300.41,889.30 301.41,887.56 307.02,882.14 308.78,883.09 308.50,884.85 306.76,886.57 305.49,888.14 304.23,889.20 302.96,889.74 301.68,889.78"/>
    </edge>
    <edge id=":1100940547_w1" function="walkingarea">
        <lane id=":1100940547_w1_0" index="0" allow="pedestrian" speed="1.00" length="3.75" width="4.00" shape="313.19,889.62 311.96,890.66 313.72,891.61 314.21,894.91 313.22,896.64 312.25,895.89 311.64,894.95 311.38,893.81 311.47,892.49 311.92,890.97"/>
    </edge>
    <edge id=":1100940547_w2" function="walkingarea">
        <lane id=":1100940547_w2_0" index="0" allow="pedestrian" speed="1.00" length="9.28" width="4.00" shape="306.57,900.21 310.04,902.20 309.05,903.93 296.22,896.58 297.22,894.85 300.69,896.84"/>
    </edge>
    <edge id=":12117940_0" function="internal">
        <lane id=":12117940_0_0" index="0" disallow="pedestrian tram rail_urban rail rail_electric rail_fast ship" speed="7.41" length="10.24" shape="930.96,824.40 931.46,826.13 932.95,827.58 935.44,828.76 938.93,829.67"/>
    </edge>
    <edge id=":12117940_1" function="internal">
        <lane id=":12117940_1_0" index="0" disallow="pedestrian tram rail_urban rail rail_electric rail_fast ship" speed="3.65" length="4.67" shape="930.96,824.40 931.76,825.60 932.56,826.00 933.36,825.60 934.16,824.40"/>
    </edge>
    <edge id=":12117940_2" function="internal">
        <lane id=":12117940_2_0" index="0" disallow="pedestrian tram rail_urban rail rail_electric rail_fast ship" speed="8.33" length="13.52" shape="925.06,830.38 938.32,832.81"/>
        <lane id=":12117940_2_1" index="1" disallow="pedestrian tram rail_urban rail rail_electric rail_fast ship" speed="8.33" length="13.52" shape="925.61,827.22 938.93,829.67"/>
    </edge>
    <edge id=":12117940_4" function="internal">
        <lane id=":12117940_4_0" index="0" disallow="pedestrian tram rail_urban rail rail_electric rail_fast ship" speed="6.51" length="10.26" shape="925.61,827.22 929.35,827.61 932.02,827.26 933.62,826.19 934.16,824.40"/>
    </edge>
    <edge id=":12117940_c0" function="crossing" crossingEdges="-39255350 39255350">
        <lane id=":12117940_c0_0" index="0" allow="pedestrian" speed="1.00" length="6.40" width="4.00" shape="935.76,826.39 929.36,826.40"/>
    </edge>
    <edge id=":12117940_c1" function="crossing" crossingEdges="432565295#3">
        <lane id=":12117940_c1_0" index="0" allow="pedestrian" speed="1.00" length="6.40" width="4.00" shape="936.05,834.00 937.27,827.72"/>
    </edge>
    <edge id=":12117940_c2" function="crossing" crossingEdges="432565295#2">
        <lane id=":12117940_c2_0" index="0" allow="pedestrian" speed="1.00" length="6.40" width="4.00" shape="927.85,825.99 926.75,832.30"/>
    </edge>
    <edge id=":12117940_w0" function="walkingarea">
        <lane id=":12117940_w0_0" index="0" allow="pedestrian" speed="1.00" length="1.82" width="4.00" shape="925.88,825.65 927.36,824.41 929.36,824.40 929.26,824.95 928.97,825.37 928.49,825.64 927.81,825.78 926.94,825.78"/>
    </edge>
    <edge id=":12117940_w1" function="walkingarea">
        <lane id=":12117940_w1_0" index="0" allow="pedestrian" speed="1.00" length="2.54" width="4.00" shape="935.76,824.39 937.76,824.39 939.23,828.10 938.17,827.81 937.30,827.39 936.63,826.84 936.15,826.15 935.85,825.34"/>
    </edge>
    <edge id=":12117940_w2" function="walkingarea">
        <lane id=":12117940_w2_0" index="0" allow="pedestrian" speed="1.00" length="8.49" width="4.00" shape="934.09,833.62 938.01,834.38 937.44,837.33 924.27,834.91 924.78,831.95 928.72,832.64"/>
    </edge>
    <edge id=":12117942_0" function="internal">
        <lane id=":12117942_0_0" index="0" disallow="pedestrian tram rail_urban rail rail_electric rail_fast ship" speed="8.33" length="7.30" shape="807.94,823.95 810.06,823.62 811.54,823.66 813.04,823.84 815.21,823.91"/>
    </edge>
    <edge id=":12117942_1" function="internal">
        <lane id=":12117942_1_0" index="0" disallow="pedestrian tram rail_urban rail rail_electric rail_fast ship" speed="8.33" length="12.13" shape="803.13,819.41 806.63,820.23 809.06,820.65 811.53,820.77 815.13,820.71"/>
    </edge>
    <edge id=":12117942_c0" function="crossing" crossingEdges="474590054">
        <lane id=":12117942_c0_0" index="0" allow="pedestrian" speed="1.00" length="3.20" width="4.00" shape="809.54,821.94 810.25,825.07"/>
    </edge>
    <edge id=":12117942_w0" function="walkingarea">
        <lane id=":12117942_w0_0" index="0" allow="pedestrian" speed="1.00" length="4.85" width="4.00" shape="815.25,825.51 815.32,828.51 808.96,828.43 808.29,825.51 809.75,825.25 810.83,825.19 811.74,825.25 812.65,825.38 813.76,825.49"/>
    </edge>
    <edge id=":12117942_w1" function="walkingarea">
        <lane id=":12117942_w1_0" index="0" allow="pedestrian" speed="1.00" length="7.02" width="4.00" shape="807.59,822.39 802.28,822.90 802.75,820.96 803.52,821.13 804.66,821.39 805.90,821.68 806.98,821.97 807.64,822.22"/>
    </edge>
    <edge id=":12117954_0" function="internal">
        <lane id=":12117954_0_0" index="0" disallow="pedestrian tram rail_urban rail rail_electric rail_fast ship" speed="7.29" length="11.73" shape="1205.79,784.06 1205.21,788.05 1204.05,790.85 1202.33,792.44 1200.04,792.83"/>
    </edge>
    <edge id=":12117954_1" function="internal">
        <lane id=":12117954_1_0" index="0" disallow="pedestrian tram rail_urban rail rail_electric rail_fast ship" speed="8.70" length="16.79" shape="1205.79,784.06 1205.95,789.52 1207.23,793.51 1209.62,796.03 1213.13,797.08"/>
    </edge>
    <edge id=":12117954_2" function="internal">
        <lane id=":12117954_2_0" index="0" disallow="pedestrian tram rail_urban rail rail_electric rail_fast ship" speed="3.65" length="4.67" shape="1205.79,784.06 1206.51,785.31 1207.28,785.76 1208.11,785.41 1208.98,784.26"/>
    </edge>
    <edge id=":12117954_3" function="internal">
        <lane id=":12117954_3_0" index="0" disallow="pedestrian tram rail_urban rail rail_electric rail_fast ship" speed="6.52" length="4.82" shape="1213.62,790.70 1211.45,790.15 1209.95,788.89 1209.71,788.32"/>
    </edge>
    <edge id=":12117954_4" function="internal">
        <lane id=":12117954_4_0" index="0" disallow="pedestrian tram rail_urban rail rail_electric rail_fast ship" speed="13.89" length="13.88" shape="1213.62,790.70 1209.57,790.89 1206.83,791.77 1204.09,792.66 1200.04,792.83"/>
    </edge>
    <edge id=":12117954_5" function="internal">
        <lane id=":12117954_5_0" index="0" disallow="pedestrian tram rail_urban rail rail_electric rail_fast ship" speed="3.65" length="2.34" shape="1213.38,793.89 1212.12,794.59 1211.66,795.36"/>
    </edge>
    <edge id=":12117954_9" function="internal">
        <lane id=":12117954_9_0" index="0" disallow="pedestrian tram rail_urban rail rail_electric rail_fast ship" speed="6.52" length="4.18" shape="1209.71,788.32 1209.13,786.93 1208.98,784.26"/>
    </edge>
    <edge id=":12117954_10" function="internal">
        <lane id=":12117954_10_0" index="0" disallow="pedestrian tram rail_urban rail rail_electric rail_fast ship" speed="3.65" length="2.34" shape="1211.66,795.36 1212.00,796.19 1213.13,797.08"/>
    </edge>
    <edge id=":12117954_6" function="internal">
        <lane id=":12117954_6_0" index="0" disallow="pedestrian tram rail_urban rail rail_electric rail_fast ship" speed="13.89" length="13.91" shape="1199.77,796.02 1203.76,796.84 1206.33,798.15 1208.91,799.46 1212.89,800.27"/>
    </edge>
    <edge id=":12117954_7" function="internal">
        <lane id=":12117954_7_0" index="0" disallow="pedestrian tram rail_urban rail rail_electric rail_fast ship" speed="8.63" length="6.65" shape="1199.77,796.02 1203.50,795.54 1205.80,793.78"/>
    </edge>
    <edge id=":12117954_8" function="internal">
        <lane id=":12117954_8_0" index="0" disallow="pedestrian tram rail_urban rail rail_electric rail_fast ship" speed="3.65" length="2.53" shape="1199.77,796.02 1201.04,795.32 1201.50,794.55 1201.43,794.37"/>
    </edge>
    <edge id=":12117954_11" function="internal">
        <lane id=":12117954_11_0" index="0" disallow="pedestrian tram rail_urban rail rail_electric rail_fast ship" speed="8.63" length="10.25" shape="1205.80,793.78 1206.28,793.42 1208.11,789.66 1208.98,784.26"/>
    </edge>
    <edge id=":12117954_12" function="internal">
        <lane id=":12117954_12_0" index="0" disallow="pedestrian tram rail_urban rail rail_electric rail_fast ship" speed="3.65" length="2.14" shape="1201.43,794.37 1201.17,793.72 1200.04,792.83"/>
    </edge>
    <edge id=":12117954_c0" function="crossing" crossingEdges="3789372#0 -3789372#0">
        <lane id=":12117954_c0_0" index="0" allow="pedestrian" speed="1.00" length="6.40" width="4.00" shape="1210.45,786.36 1204.07,785.95"/>
    </edge>
    <edge id=":12117954_c1" function="crossing" crossingEdges="310196055 -310196055">
        <lane id=":12117954_c1_0" index="0" allow="pedestrian" speed="1.00" length="12.80" width="4.00" shape="1210.77,801.71 1211.75,788.95"/>
    </edge>
    <edge id=":12117954_c2" function="crossing" crossingEdges="909777279 -909777279">
        <lane id=":12117954_c2_0" index="0" allow="pedestrian" speed="1.00" length="6.40" width="4.00" shape="1202.16,791.40 1201.64,797.77"/>
    </edge>
    <edge id=":12117954_w0" function="walkingarea">
        <lane id=":12117954_w0_0" index="0" allow="pedestrian" speed="1.00" length="4.99" width="4.00" shape="1200.17,791.23 1200.41,788.24 1202.20,783.83 1204.19,783.95 1203.95,786.26 1203.53,788.13 1202.94,789.56 1202.19,790.55 1201.26,791.11"/>
    </edge>
    <edge id=":12117954_w1" function="walkingarea">
        <lane id=":12117954_w1_0" index="0" allow="pedestrian" speed="1.00" length="3.28" width="4.00" shape="1210.58,784.37 1212.58,784.50 1213.98,786.11 1213.75,789.10 1212.70,788.89 1211.86,788.46 1211.23,787.78 1210.80,786.88 1210.59,785.74"/>
    </edge>
    <edge id=":12117954_w2" function="walkingarea">
        <lane id=":12117954_w2_0" index="0" allow="pedestrian" speed="1.00" length="8.77" width="4.00" shape="1212.77,801.86 1212.54,804.85 1199.40,800.60 1199.64,797.61 1202.53,798.08 1204.57,798.85 1206.20,799.75 1207.83,800.65 1209.88,801.40"/>
    </edge>
    <edge id=":12428410_0" function="internal">
        <lane id=":12428410_0_0" index="0" disallow="pedestrian tram rail_urban rail rail_electric rail_fast ship" speed="6.77" length="5.55" shape="629.98,413.52 629.98,410.84 630.83,408.79 631.34,408.38"/>
    </edge>
    <edge id=":12428410_1" function="internal">
        <lane id=":12428410_1_0" index="0" disallow="pedestrian tram rail_urban rail rail_electric rail_fast ship" speed="11.11" length="12.38" shape="629.98,413.52 628.09,401.28"/>
    </edge>
    <edge id=":12428410_2" function="internal">
        <lane id=":12428410_2_0" index="0" disallow="pedestrian tram rail_urban rail rail_electric rail_fast ship" speed="3.65" length="2.34" shape="629.98,413.52 629.02,412.44 628.17,412.16"/>
    </edge>
    <edge id=":12428410_9" function="internal">
        <lane id=":12428410_9_0" index="0" disallow="pedestrian tram rail_urban rail rail_electric rail_fast ship" speed="6.77" length="4.25" shape="631.34,408.38 632.54,407.38 635.11,406.60"/>
    </edge>
    <edge id=":12428410_10" function="internal">
        <lane id=":12428410_10_0" index="0" disallow="pedestrian tram rail_urban rail rail_electric rail_fast ship" speed="3.65" length="2.34" shape="628.17,412.16 627.44,412.67 626.82,413.97"/>
    </edge>
    <edge id=":12428410_3" function="internal">
        <lane id=":12428410_3_0" index="0" disallow="pedestrian tram rail_urban rail rail_electric rail_fast ship" speed="6.83" length="5.72" shape="616.59,409.22 619.36,409.24 621.45,410.11 621.89,410.64"/>
    </edge>
    <edge id=":12428410_4" function="internal">
        <lane id=":12428410_4_0" index="0" disallow="pedestrian tram rail_urban rail rail_electric rail_fast ship" speed="13.89" length="18.67" shape="616.59,409.22 635.11,406.60"/>
        <lane id=":12428410_4_1" index="1" disallow="pedestrian tram rail_urban rail rail_electric rail_fast ship" speed="13.89" length="18.67" shape="616.17,406.05 634.63,403.44"/>
    </edge>
    <edge id=":12428410_6" function="internal">
        <lane id=":12428410_6_0" index="0" disallow="pedestrian tram rail_urban rail rail_electric rail_fast ship" speed="7.72" length="13.53" shape="616.17,406.05 621.59,405.13 625.38,404.03 627.55,402.74 628.09,401.28"/>
    </edge>
    <edge id=":12428410_11" function="internal">
        <lane id=":12428410_11_0" index="0" disallow="pedestrian tram rail_urban rail rail_electric rail_fast ship" speed="6.83" length="4.26" shape="621.89,410.64 622.88,411.84 623.65,414.43"/>
    </edge>
    <edge id=":12428410_7" function="internal">
        <lane id=":12428410_7_0" index="0" disallow="pedestrian tram rail_urban rail rail_electric rail_fast ship" speed="11.11" length="12.25" shape="621.79,402.37 623.65,414.43"/>
        <lane id=":12428410_7_1" index="1" disallow="pedestrian tram rail_urban rail rail_electric rail_fast ship" speed="11.11" length="12.25" shape="624.94,401.82 626.82,413.97"/>
    </edge>
    <edge id=":12428410_c0" function="crossing" crossingEdges="38587899#0">
        <lane id=":12428410_c0_0" index="0" allow="pedestrian" speed="1.00" length="6.40" width="4.00" shape="633.38,408.49 632.41,402.16"/>
    </edge>
    <edge id=":12428410_c1" function="crossing" crossingEdges="3708465#0 -3708465#0">
        <lane id=":12428410_c1_0" index="0" allow="pedestrian" speed="1.00" length="9.60" width="4.00" shape="621.78,412.68 631.28,411.31"/>
    </edge>
    <edge id=":12428410_c2" function="crossing" crossingEdges="3789578">
        <lane id=":12428410_c2_0" index="0" allow="pedestrian" speed="1.00" length="6.40" width="4.00" shape="617.94,404.20 618.79,410.54"/>
    </edge>
    <edge id=":12428410_c3" function="crossing" crossingEdges="-14331347 14331347">
        <lane id=":12428410_c3_0" index="0" allow="pedestrian" speed="1.00" length="9.60" width="4.00" shape="630.01,402.98 620.55,404.61"/>
    </edge>
    <edge id=":12428410_w0" function="walkingarea">
        <lane id=":12428410_w0_0" index="0" allow="pedestrian" speed="1.00" length="3.66" width="4.00" shape="635.35,408.18 635.81,411.15 634.54,412.86 631.57,413.29 631.50,411.92 631.71,410.75 632.20,409.80 632.97,409.05 634.02,408.51"/>
    </edge>
    <edge id=":12428410_w1" function="walkingarea">
        <lane id=":12428410_w1_0" index="0" allow="pedestrian" speed="1.00" length="3.76" width="4.00" shape="622.07,414.66 619.10,415.08 617.20,413.78 616.81,410.81 618.23,410.74 619.44,410.96 620.43,411.46 621.20,412.24 621.74,413.31"/>
    </edge>
    <edge id=":12428410_w2" function="walkingarea">
        <lane id=":12428410_w2_0" index="0" allow="pedestrian" speed="1.00" length="2.22" width="4.00" shape="615.96,404.46 617.25,403.15 620.21,402.64 620.15,403.03 619.83,403.39 619.25,403.71 618.41,404.00 617.32,404.25"/>
    </edge>
    <edge id=":12428410_w3" function="walkingarea">
        <lane id=":12428410_w3_0" index="0" allow="pedestrian" speed="1.00" length="2.31" width="4.00" shape="629.67,401.01 632.63,400.50 634.38,401.86 633.02,402.02 631.88,402.07 630.98,401.99 630.31,401.78 629.87,401.46"/>
    </edge>
    <edge id=":12428431_0" function="internal">
        <lane id=":12428431_0_0" index="0" disallow="pedestrian tram rail_urban rail rail_electric rail_fast ship" speed="7.09" length="8.61" shape="667.35,764.89 668.14,762.75 669.42,761.18 671.18,760.19 673.42,759.76"/>
    </edge>
    <edge id=":12428431_1" function="internal">
        <lane id=":12428431_1_0" index="0" disallow="pedestrian tram rail_urban rail rail_electric rail_fast ship" speed="11.11" length="13.54" shape="666.75,750.95 666.58,754.94 666.06,757.63 665.25,760.29 664.23,764.19"/>
    </edge>
    <edge id=":12428431_2" function="internal">
        <lane id=":12428431_2_0" index="0" disallow="pedestrian tram rail_urban rail rail_electric rail_fast ship" speed="7.45" length="9.12" shape="666.75,750.95 667.18,754.94 668.44,757.74 670.05,758.99"/>
    </edge>
    <edge id=":12428431_3" function="internal">