<?xml version="1.0" encoding="UTF-8"?>

<!-- generated on 03/07/21 13:23:58 by Eclipse SUMO duarouter Version 1.8.0
<configuration xmlns:xsi="http://www.w3.org/2001/XMLSchema-instance" xsi:noNamespaceSchemaLocation="http://sumo.dlr.de/xsd/duarouterConfiguration.xsd">

    <input>
        <net-file value="C:\Program%20Files%20(x86)\Eclipse\Sumo\tools\2021-03-07-13-23-46\osm.net.xml"/>
        <additional-files value="C:\Program%20Files%20(x86)\Eclipse\Sumo\tools\2021-03-07-13-23-46\osm_stops.add.xml,C:\Program%20Files%20(x86)\Eclipse\Sumo\tools\2021-03-07-13-23-46\osm_pt.rou.xml"/>
        <route-files value="C:\Program%20Files%20(x86)\Eclipse\Sumo\tools\2021-03-07-13-23-46\osm.pedestrian.trips.xml"/>
    </input>

    <output>
        <output-file value="C:\Program%20Files%20(x86)\Eclipse\Sumo\tools\2021-03-07-13-23-46\osm.pedestrian.rou.xml"/>
        <alternatives-output value="C:\Program%20Files%20(x86)\Eclipse\Sumo\tools\2021-03-07-13-23-46\osm.pedestrian.rou.alt.xml"/>
    </output>

    <time>
        <begin value="0"/>
        <end value="3600"/>
    </time>

    <report>
        <no-warnings value="true"/>
        <ignore-errors value="true"/>
        <no-step-log value="true"/>
    </report>

</configuration>
-->

<routes xmlns:xsi="http://www.w3.org/2001/XMLSchema-instance" xsi:noNamespaceSchemaLocation="http://sumo.dlr.de/xsd/routes_file.xsd">
    <vType id="ped_pedestrian" vClass="pedestrian"/>
    <person id="ped0" type="ped_pedestrian" depart="0.00">
        <walk edges="383996048 -440850337 153340544#0 64361352 -125814738#1" busStop="-842478106"/> <!-- Stoneybatter -->
        <ride busStop="-842478111" lines="39a:1" intended="pt_bus_39a:1.0" depart="226.00"/> <!-- Blackhall Place -->
        <walk edges="-3708465#3 -3708465#0 -14331347"/>
    </person>
    <person id="ped1" type="ped_pedestrian" depart="3.88">
        <walk edges="-64270035#0 636824322#1 474590054 432565295#0 432565295#1 432565295#2 432565295#3 432565295#4 432565295#6 432565295#7 432565295#8 909777280 -909777279 310196055 52321641#0 52321641#1 52321641#3 52321641#4 52321641#5 317027067 4396159#0 4396159#1 4396159#3 360319695#0 4395982#0 4395982#1 397464856#1 387025200 -14047795#2 -14047795#1 -492437776"/>
    </person>
    <person id="ped2" type="ped_pedestrian" depart="7.75">
        <walk edges="4401603#4 4401603#3 4401603#2 4401603#1 4401603#0 913681361 31028274 31028273 4396056 372245388#1 35078315#0 35078315#1 6273610#3 33969753#3 33969753#2 33969753#0 251421389#3 39994847#1"/>
    </person>
    <person id="ped3" type="ped_pedestrian" depart="11.63">
        <walk edges="570050937 39255348#4 39255348#3 39255348#2 39255348#1 39255348#0 -13871230#0 227983488" busStop="3709896536"/> <!-- Smithfield -->
        <ride busStop="3451159931" lines="Luas_Red_Line:1" intended="pt_tram_Luas_Red_Line:1.0" depart="299.00"/> <!-- Four Courts -->
        <walk edges="-39994848#1 39994848#0 3789374#3 3789374#2 665684896 665684897#1 665684895 39994846#1 -35060878#4 -35060878#3 -35060878#2"/>
    </person>
    <person id="ped4" type="ped_pedestrian" depart="15.50">
        <walk edges="261720230#1 706767126#1 13871252#1 13871252#0 39255348#0 39255348#1 39255348#2 39255348#3 39255348#4 39255348#5 39255348#6 682430068#0 682430068#1 3789571#2 39255350 432565295#2 432565295#1 432565295#0 474590054 750330944 -153340544#1"/>
    </person>
    <person id="ped5" type="ped_pedestrian" depart="19.38">
        <walk edges="-48985678 3789372#6 3789372#5 135582841 135582842 -38358177 317027066#0 317027066#1"/>
    </person>
    <person id="ped6" type="ped_pedestrian" depart="23.25">
        <walk edges="-153254952#0 251421389#0 251421389#6 3789368#1 -39994848#0 39994848#1" busStop="3451318438"/>
        <ride busStop="4683372273" lines="Luas_Red_Line:0" intended="pt_tram_Luas_Red_Line:0.0" depart="308.00"/>
        <walk edges="49036343#1 49036343#0 31004181#8 31004181#7 31004181#5 48859797#0 3708577 4401806 128450677#0 128450676#0 442035826 -442035827#0"/>
    </person>
    <person id="ped7" type="ped_pedestrian" depart="27.13">
        <walk edges="389939200 -389939199 -317027066#1 -317027066#0 35078320 372245387#1 372245387#0 33969753#3 33969753#2 35078316#2 35078316#1"/>
    </person>
    <person id="ped8" type="ped_pedestrian" depart="31.00">
        <walk edges="-48985680 -3789372#2 3789372#3 3789372#4 3789372#5 3789372#6 3789372#7 -6273612#5 -6273612#4 -6273612#3 -6273612#2 -6273612#1 -6273612#0 33921278#0 33921278#1 244844370#2 229061149 404268319 372245388#0"/>
    </person>
    <person id="ped9" type="ped_pedestrian" depart="34.88">
        <walk edges="50017697 50017686#3 50017691#1 35078316#1 35078316#2 232841336#0 232841336#1 232841336#2 39994845 283027289#1 283027289#0 278927969" busStop="3451318438"/>
        <ride busStop="4683372272" lines="Luas_Red_Line:0" intended="pt_tram_Luas_Red_Line:0.0" depart="308.00"/>
        <walk edges="13871395 706767122 876578184#0 24807207#2 24807207#1 24807207#0 24769545#1 24769545#0 -3708465#4 3708465#5 52822147#0 52822147#1 -127200696"/>
    </person>
    <person id="ped10" type="ped_pedestrian" depart="38.75">
        <walk edges="50017686#3 50017691#1 35078316#1 35078316#2 232841336#0 232841336#1 232841336#2 39994845 283027289#1 283027289#0 278927969" busStop="3451318438"/>
        <ride busStop="4683372272" lines="Luas_Red_Line:0" intended="pt_tram_Luas_Red_Line:0.0" depart="308.00"/>
        <walk edges="13871395 41772644#0"/>
    </person>
    <person id="ped11" type="ped_pedestrian" depart="42.63">
        <walk edges="13871230#0 39255348#0 39255348#1 39255348#2 39255348#3 39255348#4 39255348#5 39255348#6 682430068#0 682430068#1 3789571#2 39255350 432565295#3 432565295#4 432565295#6 -39179549#3 -39179549#2"/>
    </person>
    <person id="ped12" type="ped_pedestrian" depart="46.50">
        <walk edges="67139161#4 310196058 147077493#0 -4396159#3 -4396159#1 -4396159#0 -317027067 -52321641#5 -52321641#4 -52321641#3 -52321641#2 -52321641#0 -310196055 909777279 893972083 3789571#0 3789571#1 3789571#2 3789571#3 3789571#4 876578185 570050942#0 570050942#1 570050942#2 570050942#3 570050942#4 507535914 227925246#1 507535910 32866923#1 32866923#0 3708838#5 4908199#0 -135582946#1 135582946#0"/>
    </person>
    <person id="ped13" type="ped_pedestrian" depart="50.38">
        <walk edges="-35078314#0 -35078316#2"/>
    </person>
    <person id="ped14" type="ped_pedestrian" depart="54.26">
        <walk edges="52321650#1 52321648#1 52321647 52321646 -52321644#1 -52321644#2 52321641#0 310196055 909777279 -372256216#7 372256216#6 372256216#4 372256216#2 372256216#1 372256216#0 401912432#4 401912432#3 401912432#2 3789252#3 3789252#2 3789252#1 4908185 384330741 3787679"/>
    </person>
    <person id="ped15" type="ped_pedestrian" depart="58.13">
        <walk edges="50017691#1 50017686#3 50017697 -35060878#1 35060878#0 6273610#1 6273610#0 12854626#3 4396056"/>
    </person>
    <person id="ped16" type="ped_pedestrian" depart="62.01">
        <walk edges="35060879#2 35078316#0 35078316#1 35078316#2 35060881 -6273612#1 35078319#0 35078319#1 35078322#0 35078322#1 35078322#2 35078322#3 35078322#4 52321641#4 75589202#1"/>
    </person>
    <person id="ped17" type="ped_pedestrian" depart="65.88">
        <walk edges="229049446 18927706#4 372245388#0 404268319 229061149 244844370#2 33921278#1 33921278#0 -6273612#0 35078319#0 35078319#1 35078322#0 35078322#1"/>
    </person>
    <person id="ped18" type="ped_pedestrian" depart="69.76">
        <walk edges="52321639#2 52321639#1 -64270137#1 -64270137#2 -64270137#3 310196055 3789372#0 3789372#1 3789372#2"/>
    </person>
    <person id="ped19" type="ped_pedestrian" depart="73.63">
        <walk edges="530918664#1 530918662#0 530918661#3 530918661#4 548348246#0 -384401185 556040851#1 -33920769#10 -33920769#9 -33920769#8 -33920769#7 543201145#1 543201145#0 278831085 278831088" busStop="3451318404"/> <!-- Jervis -->
        <ride busStop="4683372272" lines="Luas_Red_Line:0" intended="pt_tram_Luas_Red_Line:0.1" depart="797.00"/>
        <walk edges="13871395 -41772641 41772640 361409608#0 3789572 38587899#1 38587899#0 3708465#0"/>
    </person>
    <person id="ped20" type="ped_pedestrian" depart="77.51">
        <walk edges="422732483#1 -422732483#0 75589202#0 75589202#1 52321641#4 52321641#3 52321641#1 52321641#0 310196055 909777279 -372256216#7 -372256216#6 -372256216#4 -372256216#3 -372256216#1 -372256216#0 -401912432#4 -401912432#3 -265511649"/>
    </person>
    <person id="ped21" type="ped_pedestrian" depart="81.38">
        <walk edges="-50016333 6273612#3 6273612#4 6273612#5 3789372#7 3789372#6 3789372#5 3789372#4 3789372#3 3789372#2 3789372#1 3789372#0 -909777279 909777280 432565295#8 432565295#7 432565295#6 432565295#4 432565295#3 432565295#2 432565295#1 432565295#0 750330957 37721992 3789247#1 -67139249#0 -67139249#1 67139249#2 -67139249#2"/>
    </person>
    <person id="ped22" type="ped_pedestrian" depart="85.26">
        <walk edges="-334138114#5 -64361352 153340544#0 153340544#1 750330944 474590054 432565295#0 432565295#1 432565295#2 432565295#3 432565295#4 432565295#6 432565295#7 432565295#8 585819381#1 52321639#2 52321639#1 64270137#1 -52321640#2 -52321640#1 -52321640#0"/>
    </person>
    <person id="ped23" type="ped_pedestrian" depart="89.13">
        <walk edges="-35078324#0 317027066#0 50005615 50005612#2 50005612#1 50005611 -35078322#2 52321643 -135582840#1 -135582840#3 -52321641#0 -64270137#3 -64270137#2"/>
    </person>
    <person id="ped24" type="ped_pedestrian" depart="93.01">
        <walk edges="3791905#0 372245388#1 35078315#0 35078315#1 6273610#3 33969753#3 33969753#2 33969753#0 -153254952#2 153254952#1"/>
    </person>
    <person id="ped25" type="ped_pedestrian" depart="96.88">
        <walk edges="18927706#0 18927706#1 316644270#0 228762865 3791905#2 227766043 3753994 31028727 31028728 556390402#2 125863788 292236197" busStop="664499926"/> <!-- Essex Quay, Exchange Street -->
        <ride busStop="633552565" lines="39a:0" intended="pt_bus_39a:0.1" depart="779.00"/> <!-- Blackhall Place -->
        <walk edges="3708465#5 -473472738#0 -473472741"/>
    </person>
    <person id="ped26" type="ped_pedestrian" depart="100.76">
        <walk edges="-6273612#0 -6273612#1 -35060880 135582840#0 135582840#1 135582840#3 -52321644#2 -52321644#1 -52321644#0 52321640#1 52321640#2 64270137#2"/>
    </person>
    <person id="ped27" type="ped_pedestrian" depart="104.64">
        <walk edges="389938529#0 232841336#1 232841336#2 39994845 283027289#1 251421389#5 3789368#2 3789368#3 3789368#5 3789368#6 372256221 3789250#0 3789250#1 -3789251#0 -3789251#1 -3789251#2 3789251#3"/>
    </person>
    <person id="ped28" type="ped_pedestrian" depart="108.51">
        <walk edges="-41772641 706767124#1" busStop="3709896536"/> <!-- Smithfield -->
        <ride busStop="3451120785" lines="Luas_Red_Line:1" intended="pt_tram_Luas_Red_Line:1.0" depart="299.00"/> <!-- Jervis -->
        <walk edges="278831085 543201145#0 543201145#1 14401069#6 14401069#7 14401069#8 372245388#0 372245388#1 4396056"/>
    </person>
    <person id="ped29" type="ped_pedestrian" depart="112.39">
        <walk edges="-401764333#0 -401764331 3789250#0 372256221 6273612#5 6273612#4 6273612#3 6273612#2 6273612#1 -6273612#0 33921278#0 33921278#1 244844370#2 229061149"/>
    </person>
    <person id="ped30" type="ped_pedestrian" depart="116.26">
        <walk edges="904142602#0 904142602#1 904142603#1 31004181#8 31004181#7 31004181#5 31004181#4 30988142#0 -30988141 3708465#4 3708465#5 52822147#0 52822147#1 52822147#2 125814598 -64361352 153340544#0 -440850337 383996050"/>
    </person>
    <person id="ped31" type="ped_pedestrian" depart="120.14">
        <walk edges="35081617#1 35081617#0 556040851#1 147075690 229119089#0 229119089#1 -317027066#2 -317027066#1 -317027066#0 -38358177 135582842 135582841 3789372#5 -3789372#6 48985678 372256216#0 3789250#0 401764331"/>
    </person>
    <person id="ped32" type="ped_pedestrian" depart="124.01">
        <walk edges="52321647 52321646 -52321644#1 -52321644#2 -52321641#0 -310196055 3789372#0 3789372#1 3789372#2 3789372#3 3789372#4 3789372#5 48985674#0 48985674#1"/>
    </person>
    <person id="ped34" type="ped_pedestrian" depart="131.76">
        <walk edges="125814491#1 -125814491#0 7989950#1 -39178107#1 -39178107#0 39178091#1 -334138114#1 31004179#1" busStop="1396867040"/> <!-- Museum -->
        <ride busStop="3451159931" lines="Luas_Red_Line:1" intended="pt_tram_Luas_Red_Line:1.1" depart="796.00"/> <!-- Four Courts -->
        <walk edges="278927968 283027291 3789368#1 3789368#2 3789368#3 3789368#5 3789368#6 6273612#5 6273612#4 6273612#3 6273612#2 -6273612#1"/>
    </person>
    <person id="ped35" type="ped_pedestrian" depart="135.64">
        <walk edges="-473472743#1 473472743#0 473472738#2 52822147#0 3708465#5 -3708465#4 24769545#0 24769545#1 24807207#0 24807207#1 24807207#2 876578184#0 706767122 13871395 13871411 3789252#2 399483545 -648631257#1 648631257#2"/>
    </person>
    <person id="ped36" type="ped_pedestrian" depart="139.51">
        <walk edges="549289141#3 549289141#2 549289142 432565295#4 432565295#3 432565295#2 432565295#1 432565295#0 474590054 750330944 153340544#1 153340544#0 64361352 334138114#5 334138114#4 334138114#3 7989950#2 7989950#1 125814491#0"/>
    </person>
    <person id="ped37" type="ped_pedestrian" depart="143.39">
        <walk edges="39179549#1 39179549#2 39179549#3 432565295#7 432565295#8 909777280 -909777279 3789372#0 3789372#1 3789372#2 3789372#3 3789372#4 3789372#5 3789372#6 3789372#7 -6273612#5 -6273612#4 -6273612#3 -6273612#2 -6273612#1 -6273612#0 33921278#0 33921278#1 244844370#2"/>
    </person>
    <person id="ped38" type="ped_pedestrian" depart="147.26">
        <walk edges="60693102#2 60693104 3789251#0 41772644#6 41772644#5 401912436#1 278927974#0 278927974#2" busStop="4683372272"/>
        <ride busStop="4683372273" lines="Luas_Red_Line:0" intended="pt_tram_Luas_Red_Line:0.0" depart="386.00"/>
        <walk edges="49036343#1 49036343#0 -31004179#0 -290533449#1 -290533432 290533435"/>
    </person>
    <person id="ped39" type="ped_pedestrian" depart="151.14">
        <walk edges="-619879374#1 -265511640 33969753#2 33969753#0 251421389#3 251421389#4 283027291 278927968 283027288#1 283027288#0 401912436#0 41772644#1 13871395 706767122 876578184#0 24807207#2 24807207#1 24807207#0 24769545#1 24769545#0 -3708465#4 3708465#5" busStop="633552565"/> <!-- Blackhall Place -->
        <ride busStop="878117184" lines="39a:0" intended="pt_bus_39a:0.1" depart="1122.00"/> <!-- Stoneybatter -->
        <walk edges="125814738#2 -563891693 -3708463#0 -290556058#0 -543369723"/>
    </person>
    <person id="ped40" type="ped_pedestrian" depart="155.01">
        <walk edges="354380395#1 354380395#0 31004181#7 31004181#5 31004181#4 31004181#3 -3708465#3" busStop="-842478111"/> <!-- Blackhall Place -->
        <ride busStop="842484735" lines="39a:1" intended="pt_bus_39a:1.0" depart="359.00"/> <!-- Upper Ormond Quay -->
        <walk edges="12854626#1 35078312 35060879#2 35078316#0 35078316#1 35078316#2 35060881 -6273612#1 35078319#0 619585296 -619585298"/>
    </person>
    <person id="ped41" type="ped_pedestrian" depart="158.89">
        <walk edges="3708838#4 3708838#3 39255349#0 39255349#1 39255349#2 570050942#3"/>
    </person>
    <person id="ped42" type="ped_pedestrian" depart="162.77">
        <walk edges="24807207#2 876578184#0 706767122 706767124#1" busStop="3709896536"/> <!-- Smithfield -->
        <ride busStop="3451159931" lines="Luas_Red_Line:2" intended="pt_tram_Luas_Red_Line:2.0" depart="342.00"/> <!-- Four Courts -->
        <walk edges="278927968 283027291 3789368#1 3789368#2 3789368#3 3789368#5 3789368#6 -3789372#7 -3789372#6 -3789372#5 -3789372#4 -48985679"/>
    </person>
    <person id="ped43" type="ped_pedestrian" depart="166.64">
        <walk edges="94838283#1 -39178091#0 -39178091#1 -334138114#2 -334138114#3 -334138114#4 -334138114#5 125814598 52822147#2 52822147#1 52822147#0 4908199#2 4908199#1 4908199#0 3708838#5 32866923#0 32866923#1"/>
    </person>
    <person id="ped44" type="ped_pedestrian" depart="170.52">
        <walk edges="-35060879#2 35060878#2 35060878#1 -35060878#0 6273610#2 6273610#3 372245387#0 372245387#1 33921278#0 33921278#1 244844370#1 37722081#1 -271946365#3"/>
    </person>
    <person id="ped45" type="ped_pedestrian" depart="174.39">
        <walk edges="-361409607 -361409608#0 41772640 -41772641 13871252#1 13871252#0 39255348#0 39255348#1 39255348#2 39255348#3 39255348#4 39255348#5 39255348#6 682430068#0 682430068#1 3789571#2"/>
    </person>
    <person id="ped46" type="ped_pedestrian" depart="178.27">
        <walk edges="497328800#0 8403822#1 750249501 37722081#0 37722081#1 244844370#1 33921278#1 33921278#0 372245387#1 372245387#0 33969753#3 33969753#2 33969753#0 251421389#3 251421389#4 -39994848#0 39994848#1" busStop="3451318438"/>
        <ride busStop="4683372272" lines="Luas_Red_Line:0" intended="pt_tram_Luas_Red_Line:0.1" depart="908.00"/>
        <walk edges="13871395 706767126#1 261720230#1"/>
    </person>
    <person id="ped47" type="ped_pedestrian" depart="182.14">
        <walk edges="-296747003#0 -296747002 -64270137#3 -52321641#0 -135582840#3 -135582840#1 52321643 -35078322#2 50005611 50005612#1 50005612#2 50005615 317027066#0 -317027066#1 -317027066#2 229119089#1"/>
    </person>
    <person id="ped48" type="ped_pedestrian" depart="186.02">
        <walk edges="94838278#3 -3708463#1 -3708463#0 -563891693 -125814738#2 -125814738#1 64361352 153340544#0 153340544#1 750330944 474590054 432565295#0 432565295#1 432565295#2 432565295#3 432565295#4 432565295#6 432565295#7 432565295#8 909777280 -909777279 310196055 52321641#0 52321641#1 52321641#3 52321641#4 52321641#5 317027067 147075696 -4908204#1 -229061163#0 8403822#0 8403822#1 750249501 35059863#0 35059863#1"/>
    </person>
    <person id="ped49" type="ped_pedestrian" depart="189.89">
        <walk edges="75589200 4396064#1 360319695#0 4395982#0 4395982#1 530918661#0 530918663"/>
    </person>
    <person id="ped50" type="ped_pedestrian" depart="193.77">
        <walk edges="-129774671#1 128450676#2 128450676#1 128450676#0 128450677#0 4401806 80433528" busStop="667281715"/> <!-- Wolfe Tone Quay, Ellis Street -->
        <ride busStop="842484735" lines="79:1" intended="pt_bus_79:1.0" depart="616.00"/> <!-- Upper Ormond Quay -->
        <walk edges="12854626#1 35078312 35060879#2 35078316#0 35078316#1 35078316#2 35060881 -6273612#1 35078319#0 35078319#1 35078322#0 35078322#1 35078322#2 35078322#3 -461653744 436633350#1"/>
    </person>
    <person id="ped51" type="ped_pedestrian" depart="197.64">
        <walk edges="39994849#1 39994849#2 39994849#3 39994847#0 251421389#3 33969753#0 35060881 35060880"/>
    </person>
    <person id="ped52" type="ped_pedestrian" depart="201.52">
        <walk edges="-6273612#0 6273612#1 6273612#2 6273612#3 6273612#4 6273612#5 372256221 3789250#0 3789250#1 -41772644#6 -13871230#1 -13871230#0 13871252#0 13871252#1 706767122 876578184#1 39255345#0 31004181#0 384351845#1"/>
    </person>
    <person id="ped53" type="ped_pedestrian" depart="205.39">
        <walk edges="-361409608#2 8075819 -41772644#0 -41772644#1 401912436#0 283027288#0 283027288#1 278927968 283027291 251421389#4 251421389#3 33969753#0 33969753#2 33969753#3 23086918#0 23086918#1 677113762#2 677113762#1 677113762#0 14401069#4 279381058#3 278831086"/>
    </person>
    <person id="ped54" type="ped_pedestrian" depart="209.27">
        <walk edges="283027290#0 278927971#3 278927971#2 -39994848#1" busStop="3451159931"/> <!-- Four Courts -->
        <ride busStop="3451120785" lines="Luas_Red_Line:1" intended="pt_tram_Luas_Red_Line:1.0" depart="358.00"/> <!-- Jervis -->
        <walk edges="278831091#1 316644270#2 316644270#1 316644270#0 228762865 3791905#2 227766043 3753994 31028727 31028728 4401661#3 854564165#0 668344574#2 668344574#1"/>
    </person>
    <person id="ped55" type="ped_pedestrian" depart="213.15">
        <walk edges="549289141#2 549289142 432565295#6 432565295#7 432565295#8 909777280 -909777279 3789372#0 3789372#1 3789372#2 3789372#3 3789372#4 3789372#5 3789372#6 3789372#7 -6273612#5 -6273612#4 -6273612#3 -6273612#2 6273612#1 6273612#0 372245387#1 -619879373"/>
    </person>
    <person id="ped56" type="ped_pedestrian" depart="217.02">
        <walk edges="316385564 316377247#1 25631165#4 25677213#0 25631188#0 25631188#1 129212233#1 4401603#2 4401603#1 4401603#0 913681361 31028274 31028273 4396056 372245388#1 372245388#0 404268319 229061149 244844370#2 244844370#1 244844370#0 -46055277 4908204#1 147075696 4396159#0 4396159#1 75589201 -422732485#0 422732485#2 -422732485#1"/>
    </person>
    <person id="ped57" type="ped_pedestrian" depart="220.90">
        <walk edges="60693101 35078315#0 372245388#0 14401069#8 14401069#7 14401069#6 543201145#1 543201145#0"/>
    </person>
    <person id="ped58" type="ped_pedestrian" depart="224.77">
        <walk edges="-80439756#1 75589202#0 75589202#1 52321641#4 52321641#3 52321641#1 52321641#0 310196055 -909777279 909777280 432565295#8 432565295#7 432565295#6 432565295#4 432565295#3 432565295#2 432565295#1 432565295#0 474590054 750330944 153340544#1 -440850337 383996048"/>
    </person>
    <person id="ped59" type="ped_pedestrian" depart="228.65">
        <walk edges="3789251#3 369445612 13871189 682430068#0 682430068#1 3789571#2 39255350 432565295#2 432565295#1 432565295#0 474590054 750330944 153340544#1 153340544#0 64361352 334138114#5 334138114#4 334138114#3 -7989950#2 -39178107#1"/>
    </person>
    <person id="ped60" type="ped_pedestrian" depart="232.52">
        <walk edges="473472738#1 -473472738#0 3708465#5 3708465#4 -30988141 30988142#0 31004181#4 48859797#0 3708577 80433528" busStop="667281715"/> <!-- Wolfe Tone Quay, Ellis Street -->
        <ride busStop="842484735" lines="79:1" intended="pt_bus_79:1.0" depart="616.00"/> <!-- Upper Ormond Quay -->
        <walk edges="12854626#1 35078312"/>
    </person>
    <person id="ped61" type="ped_pedestrian" depart="236.40">
        <walk edges="48985677 48985674#1 48985674#0 -3789372#6 3789372#7 -6273612#5 -6273612#4 -6273612#3 -6273612#2 -6273612#1 -6273612#0 33921278#0 33921278#1 244844370#1 37722081#1 37722081#0 35059863#0 35059863#1 35059863#2 35059863#3"/>
    </person>
    <person id="ped62" type="ped_pedestrian" depart="240.27">
        <walk edges="-125813720 125814491#0 7989950#1 7989950#2 334138114#3 -334138114#4 -334138114#5 125814598 52822147#2 52822147#1 52822147#0 3708465#5 3708465#4 3708465#3 3708465#0 3789578 4401806 128450677#0 128450677#1"/>
    </person>
    <person id="ped63" type="ped_pedestrian" depart="244.15">
        <walk edges="-13871250 13871189 682430068#0 682430068#1 3789571#2 39255350 432565295#2 432565295#1 432565295#0 474590054 636824322#1 636824321"/>
    </person>
    <person id="ped64" type="ped_pedestrian" depart="248.02">
        <walk edges="549289144 549289142 432565295#6 432565295#7 432565295#8 585819381#1 52321639#2 52321639#1 -64270137#1 52321640#2 52321640#1"/>
    </person>
    <person id="ped65" type="ped_pedestrian" depart="251.90">
        <walk edges="-94838283#1 -39178138 -39178107#1 -7989950#2 334138114#3 334138114#4 334138114#5 64361352 153340544#0 153340544#1 750330944 636824322#1 -64270035#0 -64270035#1 -291344731#0 307637152#1 -291344731#2 -291344732#1"/>
    </person>
    <person id="ped66" type="ped_pedestrian" depart="255.77">
        <walk edges="549289143 549289141#2 549289142 432565295#6 432565295#7 432565295#8 909777280 -909777279 3789372#0 3789372#1 3789372#2 3789372#3 3789372#4 3789372#5 3789372#6 3789372#7 3789368#6 3789368#5 3789368#3 3789368#2 3789368#1 -39994848#0 39994848#0 3789374#3 3789374#2 665684896 665684897#1"/>
    </person>
    <person id="ped67" type="ped_pedestrian" depart="259.65">
        <walk edges="-35060878#0 -35060878#1 -35060878#2 -35060878#3 -35060878#4 39994846#1 665684895 665684897#1 665684896 3789374#2 3789374#3 39994848#0 -39994848#1" busStop="3451159931"/> <!-- Four Courts -->
        <walk edges="278927968 283027288#1 283027288#0 401912436#0 41772644#1 13871395 706767122 876578184#1 39255345#0 31004181#0 31004181#1 31004181#2 31004181#3 31004181#4"/>
    </person>
    <person id="ped68" type="ped_pedestrian" depart="263.53">
        <walk edges="-310196057#0 378969889 3789368#6 3789372#7 3789372#6 3789372#5 3789372#4 3789372#3 3789372#2 3789372#1 3789372#0 -909777279 909777280 432565295#8 432565295#7 432565295#6 432565295#4 432565295#3 432565295#2 432565295#1 432565295#0 750330957 37721992 3789247#1 -67139249#0 473472735"/>
    </person>
    <person id="ped69" type="ped_pedestrian" depart="267.40">
        <walk edges="473472745#0 473472743#0 473472738#2 52822147#0 3708465#5 3708465#4 -30988141 30988142#0 31004181#4 48859797#0 3708577 80433528" busStop="667281715"/> <!-- Wolfe Tone Quay, Ellis Street -->
        <ride busStop="2929146637" lines="145:0" intended="pt_bus_145:0.1" depart="759.00"/> <!-- Inns Quay, Chancery Place -->
        <walk edges="4408238#1 -24231263 -376394517"/>
    </person>
    <person id="ped70" type="ped_pedestrian" depart="271.28">
        <walk edges="296747003#0 -296747002 -64270137#3 -52321641#0 -135582840#3 -135582840#1 52321643 -35078322#2 50005611 50005612#1 50005612#2 50005612#3 50005613 35078321#1"/>
    </person>
    <person id="ped71" type="ped_pedestrian" depart="275.15">
        <walk edges="-619879374#1 -265511640 33969753#2 33969753#0 251421389#3 251421389#4 283027291 278927968" busStop="3451159931"/> <!-- Four Courts -->
        <walk edges="-39994848#1 39994848#2 39994848#3 -3789252#3 -3789252#2 -3789252#1 -4908185 -893972084 -3787679 529166754 4401781#0 4401781#1 4401781#2 4401781#3" busStop="255016985"/> <!-- Usher's Quay, Usher Street -->
        <ride busStop="878117184" lines="39a:0" intended="pt_bus_39a:0.1" depart="983.00"/> <!-- Stoneybatter -->
        <walk edges="125814738#2 -563891693 -3708463#0 -290556058#0 543369723"/>
    </person>
    <person id="ped72" type="ped_pedestrian" depart="279.03">
        <walk edges="265511640 33969753#2 33969753#0 251421389#3 251421389#4 283027291 278927968 283027288#1 283027288#0 401912436#0 41772644#5 -13871230#1 -13871230#0 39255348#0 570050940 570050942#7 32866923#4 32866923#3 32866923#2 32866923#1 32866923#0 3708838#5 4908199#0 4908199#1 4908199#2 52822147#0 473472738#2 473472743#0 -473472745#0"/>
    </person>
    <person id="ped73" type="ped_pedestrian" depart="282.90">
        <walk edges="35078312 35060879#2 35078316#0 35078316#1 35078316#2 35060881 -6273612#1 35078319#0 35078319#1 35078322#0 35078322#1 35078322#2 35078322#3 35078322#4 52321641#4 75589202#1 75589202#0 80439756#1 80439756#2 -4396064#0 4396064#0"/>
    </person>
    <person id="ped74" type="ped_pedestrian" depart="286.78">
        <walk edges="-46055277 229061163#0 147075690 556040851#1 556040851#0 104378042#0"/>
    </person>
    <person id="ped75" type="ped_pedestrian" depart="290.65">
        <walk edges="94838278#1 94838278#3 -3708463#1 -3708463#0 -563891693 -125814738#2 -125814738#1" busStop="-842478106"/> <!-- Stoneybatter -->
        <ride busStop="842484735" lines="39a:1" intended="pt_bus_39a:1.1" depart="826.00"/> <!-- Upper Ormond Quay -->
        <walk edges="12854626#1 35078313 -35060879#0 6273610#1 6273610#2 6273610#3 372245387#0 372245387#1 35078320 -317027066#0 -317027066#1 -389939199 389939200"/>
    </person>
    <person id="ped76" type="ped_pedestrian" depart="294.53">
        <walk edges="278927967#0 283027288#0 401912436#0 41772644#5 -13871230#1 -13871230#0 39255348#0 570050940 570050942#7 32866923#4 32866923#3 32866923#2 32866923#1 32866923#0 3708838#5 4908199#0 4908199#1 4908199#2 52822147#0 52822147#1 52822147#2 125814598 -334138114#5 -334138114#4 334138114#3"/>
    </person>
    <person id="ped77" type="ped_pedestrian" depart="298.40">
        <walk edges="-3708643 -94838278#3 3708463#1 3708463#0 563891693 125814738#2 125814738#1 125814598 52822147#2 52822147#1 52822147#0 3708465#5 -3708465#4 -3708465#3" busStop="-842478111"/> <!-- Blackhall Place -->
        <ride busStop="842484735" lines="39a:1" intended="pt_bus_39a:1.1" depart="959.00"/> <!-- Upper Ormond Quay -->
        <walk edges="12854626#1 12854626#2 12854626#3 372245388#1 372245388#0 14401069#8 14401069#7 14401069#6 515972526#3 278831091#0 14401069#4 14401069#2 -49710569#2"/>
    </person>
    <person id="ped78" type="ped_pedestrian" depart="302.28">
        <walk edges="13871189 369445612 -3789251#2 -3789251#1 -3789251#0 3789250#1 3789250#0 372256221 6273612#5 6273612#4 6273612#3 6273612#2 35060881 33969753#2 33969753#3 372245387#0"/>
    </person>
    <person id="ped79" type="ped_pedestrian" depart="306.15">
        <walk edges="-52321639#0 -64270137#1 -64270137#2 -64270137#3 310196055 -3789372#0 -3789372#1 -48985680"/>
    </person>
    <person id="ped80" type="ped_pedestrian" depart="310.03">
        <walk edges="-310196058 147077493#2 556040851#1 -33920769#10 -33920769#9 -33920769#8 -33920769#7 543201145#1 543201145#0 278831085 278831088" busStop="3451318404"/> <!-- Jervis -->
        <ride busStop="3451318438" lines="Luas_Red_Line:3" intended="pt_tram_Luas_Red_Line:3.1" depart="837.00"/>
        <walk edges="278927969 283027290#0 283027290#1 -3789252#3 -3789252#2 -3789252#1 -4908185 -893972084 -3787679 3789575#1"/>
    </person>
    <person id="ped82" type="ped_pedestrian" depart="317.78">
        <walk edges="530918662#1 530918662#0 530918661#2 530918661#1 530918661#0 67139161#3 -310196058"/>
    </person>
    <person id="ped83" type="ped_pedestrian" depart="321.66">
        <walk edges="-52321641#5 -52321641#4 -52321641#3 -52321641#2 -52321641#0 -310196055 909777279 -372256216#7 372256216#6 372256216#4 372256216#2 372256216#1 372256216#0 401912432#4 401912432#3 401912432#2 3789252#3 3789252#2 399483545"/>
    </person>
    <person id="ped84" type="ped_pedestrian" depart="325.53">