<?xml version="1.0" encoding="UTF-8"?>
<!-- generated on 2021-03-07 13:23:51.333305 by $Id: ptlines2flows.py v1_3_1+0313-ccb31df3eb jakob.erdmann@dlr.de 2019-09-02 13:26:32 +0200 $ v1_8_0+0044-4820708f3d
  options: 
-->
<routes xmlns:xsi="http://www.w3.org/2001/XMLSchema-instance" xsi:noNamespaceSchemaLocation="http://sumo.dlr.de/xsd/routes_file.xsd">
    <vType id="pt_bus" vClass="bus">
        <param key="has.ssm.device" value="true"/>
        <param key="device.ssm.file" value="ssm_north_pt_bus.xml" />
        <param key="device.ssm.probability" value="1"/>
        <param key="device.ssm.deterministic" value="True"/>
        <param key="device.ssm.measures" value="TTC PET"/>
        <param key="device.ssm.thresholds"  value="1.5 2"/>
        <param key="device.ssm.range" value="20"/>
        <param key="device.ssm.extratime" value="0.5"/>
        <param key="device.ssm.trajectories" value="False"/>
        <param key="device.ssm.geo" value="True"/>
        <param key="has.tripinfo.device" value="true"/>
        <param key="device.tripinfo.probability" value="true"/>
    </vType>
    <vType id="pt_tram" vClass="tram">
        <param key="has.ssm.device" value="true"/>
        <param key="device.ssm.file" value="ssm_north_pt_tram.xml" />
        <param key="device.ssm.probability" value="1"/>
        <param key="device.ssm.deterministic" value="True"/>
        <param key="device.ssm.measures" value="TTC PET"/>
        <param key="device.ssm.thresholds"  value="1.5 2"/>
        <param key="device.ssm.range" value="20"/>
        <param key="device.ssm.extratime" value="0.5"/>
        <param key="device.ssm.trajectories" value="False"/>
        <param key="device.ssm.geo" value="True"/>
        <param key="has.tripinfo.device" value="true"/>
        <param key="device.tripinfo.probability" value="true"/>
    </vType>
    <vType id="pt_train" vClass="rail"/>
    <vType id="pt_subway" vClass="rail_urban"/>
    <vType id="pt_light_rail" vClass="rail_urban"/>
    <vType id="pt_monorail" vClass="rail"/>
    <vType id="pt_trolleybus" vClass="bus"/>
    <vType id="pt_aerialway" vClass="bus"/>
    <vType id="pt_ferry" vClass="ship"/>
    <trip id="0_bus_39:0" type="pt_bus" depart="3" departLane="best" from="-3708463#2" to="3791905#3">
        <stop busStop="-842478107" duration="30"/>
        <stop busStop="-842478106" duration="30"/>
        <stop busStop="-842478111" duration="30"/>
        <stop busStop="842484735" duration="30"/>
    </trip>
    <trip id="1_bus_39:1" type="pt_bus" depart="15" departLane="best" from="556390402#0" to="3708463#2">
        <stop busStop="664499926" duration="30"/>
        <stop busStop="598490680" duration="30"/>
        <stop busStop="255016985" duration="30"/>
        <stop busStop="633552565" duration="30"/>
        <stop busStop="878117184" duration="30"/>
    </trip>
    <trip id="2_bus_37:0" type="pt_bus" depart="15" departLane="best" from="556390402#0" to="3708463#2">
        <stop busStop="664499926" duration="30"/>
        <stop busStop="598490680" duration="30"/>
        <stop busStop="255016985" duration="30"/>
        <stop busStop="633552565" duration="30"/>
        <stop busStop="878117184" duration="30"/>
    </trip>
    <trip id="3_bus_39a:0" type="pt_bus" depart="17" departLane="best" from="556390402#0" to="3708463#2">
        <stop busStop="664499926" duration="30"/>
        <stop busStop="598490680" duration="30"/>
        <stop busStop="255016985" duration="30"/>
        <stop busStop="633552565" duration="30"/>
        <stop busStop="878117184" duration="30"/>
    </trip>
    <trip id="4_bus_25A:0" type="pt_bus" depart="52" departLane="best" from="556390402#0" to="13907386">
        <stop busStop="255016985" duration="30"/>
    </trip>
    <trip id="5_bus_25:0" type="pt_bus" depart="55" departLane="best" from="556390402#0" to="13907386">
        <stop busStop="650220218" duration="30"/>
    </trip>
    <trip id="6_bus_66a:0" type="pt_bus" depart="58" departLane="best" from="4401781#3" to="4401781#3">
        <stop busStop="255016985" duration="30"/>
    </trip>
    <trip id="7_bus_145:0" type="pt_bus" depart="93" departLane="best" from="317127417" to="3791905#3">
        <stop busStop="667281715" duration="30"/>
        <stop busStop="2929146637" duration="30"/>
        <stop busStop="650220218@18359" duration="30"/>
    </trip>
    <trip id="8_bus_39a:1" type="pt_bus" depart="119" departLane="best" from="-3708463#2" to="3791905#3">
        <stop busStop="-842478107" duration="30"/>
        <stop busStop="-842478106" duration="30"/>
        <stop busStop="-842478111" duration="30"/>
        <stop busStop="842484735" duration="30"/>
    </trip>
    <trip id="9_tram_Luas_Red_Line:0" type="pt_tram" depart="131" departLane="best" from="352511043#0" to="352511043#28">
        <stop busStop="3451318404" duration="30"/>
        <stop busStop="3451318438" duration="30"/>
        <stop busStop="4683372272" duration="30"/>
        <stop busStop="4683372273" duration="30"/>
    </trip>
    <trip id="10_tram_Luas_Red_Line:1" type="pt_tram" depart="132" departLane="best" from="317127413#0" to="338055464#21">
        <stop busStop="1396867040" duration="30"/>
        <stop busStop="3709896536" duration="30"/>
        <stop busStop="3451159931" duration="30"/>
        <stop busStop="3451120785" duration="30"/>
    </trip>
    <trip id="11_tram_Luas_Red_Line:2" type="pt_tram" depart="133" departLane="best" from="317127413#0" to="338055464#21">
        <stop busStop="1396867040" duration="30"/>
        <stop busStop="3709896536" duration="30"/>
        <stop busStop="3451159931" duration="30"/>
        <stop busStop="3451120785" duration="30"/>
    </trip>
    <trip id="12_tram_Luas_Red_Line:3" type="pt_tram" depart="165" departLane="best" from="352511043#0" to="352511043#28">
        <stop busStop="3451318404" duration="30"/>
        <stop busStop="3451318438" duration="30"/>
        <stop busStop="4683372272" duration="30"/>
        <stop busStop="4683372273" duration="30"/>
    </trip>
    <trip id="13_bus_747:0" type="pt_bus" depart="201" departLane="best" from="5976030" to="13907386">
        <stop busStop="255016985" duration="30"/>
    </trip>
    <trip id="14_bus_67:0" type="pt_bus" depart="204" departLane="best" from="317127417" to="3791905#3">
        <stop busStop="255016985@52346" duration="30"/>
    </trip>
    <trip id="15_tram_Luas_Green_Line:0" type="pt_tram" depart="227" departLane="best" from="560223962#0" to="548477025#5">
        <stop busStop="5298637240" duration="30"/>
        <stop busStop="8398652317" duration="30"/>
    </trip>
    <trip id="16_tram_Luas_Green_Line:1" type="pt_tram" depart="253" departLane="best" from="549411867#0" to="548477024#2">
        <stop busStop="3452492564" duration="30"/>
        <stop busStop="3452492565" duration="30"/>
    </trip>
    <trip id="17_bus_145:1" type="pt_bus" depart="303" departLane="best" from="556390402#0" to="13907386">
        <stop busStop="664499926" duration="30"/>
        <stop busStop="598490680" duration="30"/>
        <stop busStop="255016985" duration="30"/>
    </trip>
    <trip id="18_bus_79:0" type="pt_bus" depart="321" departLane="best" from="556390402#0" to="13907386">
        <stop busStop="598490680" duration="30"/>
        <stop busStop="664499926" duration="30"/>
        <stop busStop="255016985" duration="30"/>
    </trip>
    <trip id="19_bus_79A:0" type="pt_bus" depart="326" departLane="best" from="3789575#0" to="4401781#3">
        <stop busStop="598490680" duration="30"/>
        <stop busStop="664499926" duration="30"/>
        <stop busStop="255016985" duration="30"/>
    </trip>
    <trip id="20_bus_70:0" type="pt_bus" depart="331" departLane="best" from="529166754" to="4401781#4">
        <stop busStop="255016985" duration="30"/>
    </trip>
    <trip id="21_bus_25B:0" type="pt_bus" depart="353" departLane="best" from="556390402#0" to="13907386">
        <stop busStop="255016985" duration="30"/>
    </trip>
    <trip id="22_bus_25d:0" type="pt_bus" depart="362" departLane="best" from="4401781#0" to="4401781#4">
        <stop busStop="255016985" duration="30"/>
    </trip>
    <trip id="23_bus_25x:0" type="pt_bus" depart="383" departLane="best" from="4401781#0" to="4401781#4">
        <stop busStop="255016985" duration="30"/>
    </trip>
    <trip id="24_bus_26:0" type="pt_bus" depart="389" departLane="best" from="556390402#0" to="13907386">
        <stop busStop="650220218" duration="30"/>
        <stop busStop="667281715@7176757" duration="30"/>
        <stop busStop="255016985" duration="30"/>
    </trip>
    <trip id="25_bus_51d:0" type="pt_bus" depart="406" departLane="best" from="529166754" to="4401781#4">
        <stop busStop="255016985" duration="30"/>
    </trip>
    <trip id="26_bus_66:0" type="pt_bus" depart="418" departLane="best" from="529166754" to="4401781#4">
        <stop busStop="255016985" duration="30"/>
    </trip>
    <trip id="27_bus_66b:0" type="pt_bus" depart="437" departLane="best" from="529166754" to="4401781#4">
        <stop busStop="255016985" duration="30"/>
    </trip>
    <trip id="28_bus_66x:0" type="pt_bus" depart="441" departLane="best" from="529166754" to="4401781#4">
        <stop busStop="255016985" duration="30"/>
    </trip>
    <trip id="29_bus_67x:0" type="pt_bus" depart="483" departLane="best" from="529166754" to="4401781#4">
        <stop busStop="255016985" duration="30"/>
    </trip>
    <trip id="30_bus_69:0" type="pt_bus" depart="484" departLane="best" from="4401781#3" to="292236197">
        <stop busStop="255016985" duration="30"/>
        <stop busStop="598490680" duration="30"/>
        <stop busStop="664499926" duration="30"/>
    </trip>
    <trip id="31_bus_69x:0" type="pt_bus" depart="485" departLane="best" from="556390402#0" to="13907386">
        <stop busStop="664499926" duration="30"/>
        <stop busStop="598490680" duration="30"/>
        <stop busStop="255016985" duration="30"/>
    </trip>
    <trip id="32_bus_25A:1" type="pt_bus" depart="508" departLane="best" from="317127417" to="3791905#3">
        <stop busStop="255016985@52346" duration="30"/>
    </trip>
    <trip id="33_bus_25B:1" type="pt_bus" depart="535" departLane="best" from="317127417" to="3791905#3">
        <stop busStop="255016985@52346" duration="30"/>
    </trip>
    <trip id="34_bus_79:1" type="pt_bus" depart="574" departLane="best" from="80433528" to="31028273">
        <stop busStop="667281715" duration="30"/>
        <stop busStop="842484735" duration="30"/>
    </trip>
    <trip id="35_bus_79A:1" type="pt_bus" depart="583" departLane="best" from="317127417" to="31028273">
        <stop busStop="667281715" duration="30"/>
        <stop busStop="842484735" duration="30"/>
    </trip>
</routes>
