<routes xmlns:xsi="http://www.w3.org/2001/XMLSchema-instance" xsi:noNamespaceSchemaLocation="http://sumo.dlr.de/xsd/routes_file.xsd">
    <vType id="tram_tram" vClass="tram">
        <param key="has.ssm.device" value="true" />
        <param key="device.ssm.file" value="Results/HDV-0.85_CAV2-0.075_CAV4-0.075/ssm_tram.xml" />
        <param key="device.ssm.probability" value="1" />
        <param key="device.ssm.deterministic" value="True" />
        <param key="device.ssm.measures" value="TTC PET" />
        <param key="device.ssm.thresholds" value="1.5 1" />
        <param key="device.ssm.range" value="20" />
        <param key="device.ssm.extratime" value="0.5" />
        <param key="device.ssm.trajectories" value="False" />
        <param key="device.ssm.geo" value="True" />
        <param key="has.tripinfo.device" value="true" />
        <param key="device.tripinfo.probability" value="true" />
    </vType>
    <trip depart="0.00" departLane="best" departSpeed="max" from="317127413#0" id="tram0" to="338055464#21" type="tram_tram" />
    <trip depart="324.98" departLane="best" departSpeed="max" from="317127413#0" id="tram1" to="338055464#16" type="tram_tram" />
    <trip depart="649.96" departLane="best" from="352511043#12" id="tram2" to="352511043#28" type="tram_tram" />
    <trip depart="1299.92" departLane="best" departSpeed="max" from="317127413#0" id="tram4" to="338055464#21" type="tram_tram" />
</routes>