<routes xmlns:xsi="http://www.w3.org/2001/XMLSchema-instance" xsi:noNamespaceSchemaLocation="http://sumo.dlr.de/xsd/routes_file.xsd">
    <vType id="bike_bicycle" vClass="bicycle">
        <param key="has.ssm.device" value="true" />
        <param key="device.ssm.file" value="Results/HDV-0.85_CAV2-0.075_CAV4-0.075/ssm_bicycle.xml" />
        <param key="device.ssm.probability" value="1" />
        <param key="device.ssm.deterministic" value="True" />
        <param key="device.ssm.measures" value="TTC PET" />
        <param key="device.ssm.thresholds" value="1.5 1" />
        <param key="device.ssm.range" value="20" />
        <param key="device.ssm.extratime" value="0.5" />
        <param key="device.ssm.trajectories" value="False" />
        <param key="device.ssm.geo" value="True" />
        <param key="has.tripinfo.device" value="true" />
        <param key="device.tripinfo.probability" value="true" />
    </vType>
    <trip depart="0.00" departLane="best" from="3708838#3" id="bike0" to="-13871250" type="bike_bicycle" />
    <trip depart="7.11" departLane="best" from="-49710569#2" id="bike1" to="-4395970" type="bike_bicycle" />
    <trip depart="14.23" departLane="best" from="397464856#3" id="bike2" to="3789368#5" type="bike_bicycle" />
    <trip depart="21.34" departLane="best" from="52375079#1" id="bike3" to="-31004179#0" type="bike_bicycle" />
    <trip depart="28.46" departLane="best" from="13871250" id="bike4" to="-14047795#4" type="bike_bicycle" />
    <trip depart="35.57" departLane="best" from="-422732485#1" id="bike5" to="283027965#0" type="bike_bicycle" />
    <trip depart="42.68" departLane="best" from="-14047795#1" id="bike6" to="-401764333#1" type="bike_bicycle" />
    <trip depart="49.80" departLane="best" from="372256216#1" id="bike7" to="31028273" type="bike_bicycle" />
    <trip depart="56.91" departLane="best" from="-422732486" id="bike8" to="35078316#2" type="bike_bicycle" />
    <trip depart="64.03" departLane="best" from="4401781#3" id="bike9" to="-125814738#1" type="bike_bicycle" />
    <trip depart="71.14" departLane="best" from="4401661#3" id="bike10" to="3789578" type="bike_bicycle" />
    <trip depart="78.25" departLane="best" from="-64270035#0" id="bike11" to="-372256216#7" type="bike_bicycle" />
    <trip depart="85.37" departLane="best" from="64270140" id="bike12" to="-63908781" type="bike_bicycle" />
    <trip depart="92.48" departLane="best" from="-310196058" id="bike13" to="-317027067" type="bike_bicycle" />
    <trip depart="99.59" departLane="best" from="48859797#0" id="bike14" to="35081617#1" type="bike_bicycle" />
    <trip depart="106.71" departLane="best" from="4401781#0" id="bike15" to="39255348#2" type="bike_bicycle" />
    <trip depart="113.82" departLane="best" from="31004181#3" id="bike16" to="750330957" type="bike_bicycle" />
    <trip depart="120.94" departLane="best" from="-94838278#1" id="bike17" to="317127411" type="bike_bicycle" />
    <trip depart="128.05" departLane="best" from="445383139" id="bike18" to="361409608#1" type="bike_bicycle" />
    <trip depart="135.16" departLane="best" from="4908204#1" id="bike19" to="35060879#0" type="bike_bicycle" />
    <trip depart="142.28" departLane="best" from="383996050" id="bike20" to="-233075611#1" type="bike_bicycle" />
    <trip depart="149.39" departLane="best" from="-4396159#0" id="bike21" to="-52321641#4" type="bike_bicycle" />
    <trip depart="156.51" departLane="best" from="-292662750#0" id="bike22" to="-442035815#1" type="bike_bicycle" />
    <trip depart="163.62" departLane="best" from="-334138114#2" id="bike23" to="-50016333" type="bike_bicycle" />
    <trip depart="170.73" departLane="best" from="3708578#3" id="bike24" to="-757833288" type="bike_bicycle" />
    <trip depart="177.85" departLane="best" from="-80439756#2" id="bike25" to="-41772644#0" type="bike_bicycle" />
    <trip depart="184.96" departLane="best" from="-48985678" id="bike26" to="6273610#2" type="bike_bicycle" />
    <trip depart="199.19" departLane="best" from="-3789372#1" id="bike28" to="39255348#1" type="bike_bicycle" />
    <trip depart="206.30" departLane="best" from="-3789251#1" id="bike29" to="-94838278#3" type="bike_bicycle" />
    <trip depart="213.42" departLane="best" from="904307305" id="bike30" to="3716925" type="bike_bicycle" />
    <trip depart="220.53" departLane="best" from="334138114#3" id="bike31" to="3789372#6" type="bike_bicycle" />
    <trip depart="227.64" departLane="best" from="474590054" id="bike32" to="422732485#1" type="bike_bicycle" />
    <trip depart="234.76" departLane="best" from="-4396159#1" id="bike33" to="-14331345" type="bike_bicycle" />
    <trip depart="241.87" departLane="best" from="-550187801" id="bike34" to="-48985680" type="bike_bicycle" />
    <trip depart="248.99" departLane="best" from="-41772644#1" id="bike35" to="6273612#4" type="bike_bicycle" />
    <trip depart="256.10" departLane="best" from="52321640#1" id="bike36" to="-550187801" type="bike_bicycle" />
    <trip depart="263.21" departLane="best" from="37721990" id="bike37" to="128450676#0" type="bike_bicycle" />
    <trip depart="277.44" departLane="best" from="-48985674#0" id="bike39" to="-461653745" type="bike_bicycle" />
    <trip depart="284.56" departLane="best" from="33920769#1" id="bike40" to="-48985673#0" type="bike_bicycle" />
    <trip depart="291.67" departLane="best" from="35060881" id="bike41" to="52822147#2" type="bike_bicycle" />
    <trip depart="298.78" departLane="best" from="128450677#0" id="bike42" to="-422732486" type="bike_bicycle" />
    <trip depart="305.90" departLane="best" from="94838283#2" id="bike43" to="290533449#1" type="bike_bicycle" />
    <trip depart="313.01" departLane="best" from="-310196057#0" id="bike44" to="-233075611#2" type="bike_bicycle" />
    <trip depart="320.13" departLane="best" from="-35060879#1" id="bike45" to="3708465#0" type="bike_bicycle" />
    <trip depart="327.24" departLane="best" from="4396056" id="bike46" to="13871250" type="bike_bicycle" />
    <trip depart="334.35" departLane="best" from="-283027965#0" id="bike47" to="-94838283#2" type="bike_bicycle" />
    <trip depart="341.47" departLane="best" from="94838283#0" id="bike48" to="30988140" type="bike_bicycle" />
    <trip depart="348.58" departLane="best" from="750249502" id="bike49" to="4908185" type="bike_bicycle" />
    <trip depart="355.69" departLane="best" from="-128450676#2" id="bike50" to="39178107#1" type="bike_bicycle" />
    <trip depart="362.81" departLane="best" from="3789372#2" id="bike51" to="31004181#3" type="bike_bicycle" />
    <trip depart="369.92" departLane="best" from="-48985678" id="bike52" to="372226859#0" type="bike_bicycle" />
    <trip depart="377.04" departLane="best" from="-35060880" id="bike53" to="14047796" type="bike_bicycle" />
    <trip depart="384.15" departLane="best" from="153360305" id="bike54" to="64270137#3" type="bike_bicycle" />
    <trip depart="391.26" departLane="best" from="52321640#0" id="bike55" to="-48985673#1" type="bike_bicycle" />
    <trip depart="398.38" departLane="best" from="271946366" id="bike56" to="-383996050" type="bike_bicycle" />
    <trip depart="405.49" departLane="best" from="55200269" id="bike57" to="50014738" type="bike_bicycle" />
    <trip depart="412.61" departLane="best" from="-52324406" id="bike58" to="3716924" type="bike_bicycle" />
    <trip depart="419.72" departLane="best" from="35081619#1" id="bike59" to="-372256216#4" type="bike_bicycle" />
    <trip depart="426.83" departLane="best" from="41772641" id="bike60" to="31004181#7" type="bike_bicycle" />
    <trip depart="433.95" departLane="best" from="432565295#1" id="bike61" to="30988141" type="bike_bicycle" />
    <trip depart="441.06" departLane="best" from="-125813720" id="bike62" to="-619879373" type="bike_bicycle" />
    <trip depart="448.18" departLane="best" from="-135582946#0" id="bike63" to="619585296" type="bike_bicycle" />
    <trip depart="455.29" departLane="best" from="52321641#0" id="bike64" to="445383138" type="bike_bicycle" />
    <trip depart="462.40" departLane="best" from="-549289143" id="bike65" to="-265511640" type="bike_bicycle" />
    <trip depart="469.52" departLane="best" from="52321640#2" id="bike66" to="64226715#3" type="bike_bicycle" />
    <trip depart="476.63" departLane="best" from="-296747004" id="bike67" to="24807207#0" type="bike_bicycle" />
    <trip depart="483.75" departLane="best" from="-290556058#0" id="bike68" to="40641511" type="bike_bicycle" />
    <trip depart="490.86" departLane="best" from="41772644#5" id="bike69" to="-354380392#0" type="bike_bicycle" />
    <trip depart="497.97" departLane="best" from="233674059" id="bike70" to="317027066#2" type="bike_bicycle" />
    <trip depart="505.09" departLane="best" from="-48985674#0" id="bike71" to="50016333" type="bike_bicycle" />
    <trip depart="512.20" departLane="best" from="13871252#0" id="bike72" to="-41772644#6" type="bike_bicycle" />
    <trip depart="519.31" departLane="best" from="31004181#7" id="bike73" to="39255348#2" type="bike_bicycle" />
    <trip depart="526.43" departLane="best" from="-401767522#0" id="bike74" to="-550010926" type="bike_bicycle" />
    <trip depart="533.54" departLane="best" from="94838278#3" id="bike75" to="372256216#6" type="bike_bicycle" />
    <trip depart="540.66" departLane="best" departSpeed="max" from="14401069#0" id="bike76" to="291344732#1" type="bike_bicycle" />
    <trip depart="547.77" departLane="best" from="-35078322#2" id="bike77" to="-4395994#1" type="bike_bicycle" />
    <trip depart="554.88" departLane="best" from="-64226715#3" id="bike78" to="35078316#1" type="bike_bicycle" />
    <trip depart="562.00" departLane="best" from="-4396159#3" id="bike79" to="-424908233" type="bike_bicycle" />
    <trip depart="569.11" departLane="best" from="-290556058#2" id="bike80" to="3708577" type="bike_bicycle" />
    <trip depart="576.23" departLane="best" from="-4396159#1" id="bike81" to="549289141#3" type="bike_bicycle" />
    <trip depart="583.34" departLane="best" from="4908199#1" id="bike82" to="-291344731#0" type="bike_bicycle" />
    <trip depart="590.45" departLane="best" from="-442035819#1" id="bike83" to="3789251#4" type="bike_bicycle" />
    <trip depart="597.57" departLane="best" from="-422732483#0" id="bike84" to="-358260293" type="bike_bicycle" />
    <trip depart="611.80" departLane="best" from="233075611#1" id="bike86" to="432565295#4" type="bike_bicycle" />
    <trip depart="618.91" departLane="best" from="4401781#1" id="bike87" to="-39179549#1" type="bike_bicycle" />
    <trip depart="626.02" departLane="best" from="-317027066#2" id="bike88" to="14047795#1" type="bike_bicycle" />
    <trip depart="633.14" departLane="best" from="13871252#1" id="bike89" to="229119089#1" type="bike_bicycle" />
    <trip depart="640.25" departLane="best" from="39255348#2" id="bike90" to="3789252#3" type="bike_bicycle" />
    <trip depart="647.36" departLane="best" from="83942465" id="bike91" to="-334138114#1" type="bike_bicycle" />
    <trip depart="654.48" departLane="best" from="12854626#0" id="bike92" to="-64270035#0" type="bike_bicycle" />
    <trip depart="661.59" departLane="best" from="4908204#1" id="bike93" to="-461653888" type="bike_bicycle" />
    <trip depart="668.71" departLane="best" from="-39179549#0" id="bike94" to="147077493#0" type="bike_bicycle" />
    <trip depart="675.82" departLane="best" from="13871250" id="bike95" to="-509526367" type="bike_bicycle" />
    <trip depart="682.93" departLane="best" from="-461653888" id="bike96" to="585819383#0" type="bike_bicycle" />
    <trip depart="690.05" departLane="best" from="14401069#8" id="bike97" to="4908185" type="bike_bicycle" />
    <trip depart="697.16" departLane="best" from="317027067" id="bike98" to="-24807207#0" type="bike_bicycle" />
    <trip depart="704.28" departLane="best" from="94838283#4" id="bike99" to="473472735" type="bike_bicycle" />
    <trip depart="711.39" departLane="best" from="682430068#1" id="bike100" to="59172069#2" type="bike_bicycle" />
    <trip depart="718.50" departLane="best" from="48863650" id="bike101" to="-3789252#1" type="bike_bicycle" />
    <trip depart="725.62" departLane="best" from="24769545#1" id="bike102" to="-422732483#1" type="bike_bicycle" />
    <trip depart="739.85" departLane="best" from="-94838278#1" id="bike104" to="8403822#0" type="bike_bicycle" />
    <trip depart="746.96" departLane="best" from="-48985674#0" id="bike105" to="432565295#4" type="bike_bicycle" />
    <trip depart="754.07" departLane="best" from="182856021" id="bike106" to="13871252#0" type="bike_bicycle" />
    <trip depart="761.19" departLane="best" from="64270140" id="bike107" to="94838283#0" type="bike_bicycle" />
    <trip depart="768.30" departLane="best" from="334138114#2" id="bike108" to="39178091#1" type="bike_bicycle" />
    <trip depart="775.42" departLane="best" from="-372256216#4" id="bike109" to="-52324405" type="bike_bicycle" />
    <trip depart="782.53" departLane="best" from="682430068#0" id="bike110" to="35060879#2" type="bike_bicycle" />
    <trip depart="789.64" departLane="best" from="310196057#0" id="bike111" to="39994849#2" type="bike_bicycle" />
    <trip depart="796.76" departLane="best" from="-261557478" id="bike112" to="35078314#1" type="bike_bicycle" />
    <trip depart="803.87" departLane="best" from="27806076#2" id="bike113" to="48985672" type="bike_bicycle" />
    <trip depart="810.98" departLane="best" from="-372256221" id="bike114" to="648631257#2" type="bike_bicycle" />
    <trip depart="818.10" departLane="best" from="-292662750#0" id="bike115" to="-39178091#1" type="bike_bicycle" />
    <trip depart="825.21" departLane="best" from="35078319#1" id="bike116" to="3789368#2" type="bike_bicycle" />
    <trip depart="832.33" departLane="best" from="-442035816" id="bike117" to="-35078322#2" type="bike_bicycle" />
    <trip depart="839.44" departLane="best" from="52324406" id="bike118" to="-461653745" type="bike_bicycle" />
    <trip depart="846.55" departLane="best" from="35078319#1" id="bike119" to="361409608#2" type="bike_bicycle" />
    <trip depart="853.67" departLane="best" from="13871198#1" id="bike120" to="35078314#1" type="bike_bicycle" />
    <trip depart="860.78" departLane="best" from="292662751" id="bike121" to="6273610#0" type="bike_bicycle" />
    <trip depart="867.90" departLane="best" from="-401912432#3" id="bike122" to="389939199" type="bike_bicycle" />
    <trip depart="875.01" departLane="best" from="-442035824" id="bike123" to="128450676#1" type="bike_bicycle" />
    <trip depart="882.12" departLane="best" from="3789251#5" id="bike124" to="-529166755" type="bike_bicycle" />
    <trip depart="889.24" departLane="best" from="-55200269" id="bike125" to="401764333#0" type="bike_bicycle" />
    <trip depart="903.47" departLane="best" from="94838283#3" id="bike127" to="94838283#0" type="bike_bicycle" />
    <trip depart="910.58" departLane="best" from="-291344731#1" id="bike128" to="-422732483#0" type="bike_bicycle" />
    <trip depart="917.69" departLane="best" from="-48985674#0" id="bike129" to="6273600#0" type="bike_bicycle" />
    <trip depart="924.81" departLane="best" from="52321641#3" id="bike130" to="52321640#0" type="bike_bicycle" />
    <trip depart="931.92" departLane="best" from="-80439756#1" id="bike131" to="-377671919" type="bike_bicycle" />
    <trip depart="939.03" departLane="best" from="473472738#0" id="bike132" to="38358177" type="bike_bicycle" />
    <trip depart="946.15" departLane="best" from="356866330" id="bike133" to="876578186" type="bike_bicycle" />
    <trip depart="953.26" departLane="best" from="372256216#7" id="bike134" to="-127200696" type="bike_bicycle" />
    <trip depart="960.38" departLane="best" from="440850338" id="bike135" to="-52375079#1" type="bike_bicycle" />
    <trip depart="967.49" departLane="best" from="3789247#0" id="bike136" to="6273612#0" type="bike_bicycle" />
    <trip depart="974.60" departLane="best" from="-360319695#0" id="bike137" to="-35078316#0" type="bike_bicycle" />
    <trip depart="981.72" departLane="best" from="-35060878#3" id="bike138" to="334138114#1" type="bike_bicycle" />
    <trip depart="988.83" departLane="best" from="-492437776" id="bike139" to="35081619#0" type="bike_bicycle" />
    <trip depart="995.95" departLane="best" from="39178091#1" id="bike140" to="-401912432#3" type="bike_bicycle" />
    <trip depart="1003.06" departLane="best" from="3708577" id="bike141" to="-48985674#0" type="bike_bicycle" />
    <trip depart="1010.17" departLane="best" from="24807207#2" id="bike142" to="549289141#3" type="bike_bicycle" />
    <trip depart="1017.29" departLane="best" from="48482641#1" id="bike143" to="-314537004" type="bike_bicycle" />
    <trip depart="1024.40" departLane="best" from="13871252#1" id="bike144" to="-50014740" type="bike_bicycle" />
    <trip depart="1031.52" departLane="best" from="-125814491#0" id="bike145" to="422732483#0" type="bike_bicycle" />
    <trip depart="1038.63" departLane="best" from="3708643" id="bike146" to="-48985673#0" type="bike_bicycle" />
    <trip depart="1045.74" departLane="best" from="39994845" id="bike147" to="317127411" type="bike_bicycle" />
    <trip depart="1052.86" departLane="best" from="13907388" id="bike148" to="-128450676#0" type="bike_bicycle" />
    <trip depart="1059.97" departLane="best" from="-291344731#3" id="bike149" to="52321641#1" type="bike_bicycle" />
    <trip depart="1067.08" departLane="best" from="549289143" id="bike150" to="31028274" type="bike_bicycle" />
    <trip depart="1074.20" departLane="best" from="473472738#1" id="bike151" to="35078311" type="bike_bicycle" />
    <trip depart="1081.31" departLane="best" from="-3708578#3" id="bike152" to="-35081619#1" type="bike_bicycle" />
    <trip depart="1088.43" departLane="best" from="-549289144" id="bike153" to="529166754" type="bike_bicycle" />
    <trip depart="1095.54" departLane="best" from="4396159#1" id="bike154" to="4908185" type="bike_bicycle" />
    <trip depart="1102.65" departLane="best" from="543369723" id="bike155" to="-41772644#1" type="bike_bicycle" />
    <trip depart="1109.77" departLane="best" from="-461653888" id="bike156" to="-35060878#0" type="bike_bicycle" />
    <trip depart="1116.88" departLane="best" from="432565295#3" id="bike157" to="52321641#3" type="bike_bicycle" />
    <trip depart="1124.00" departLane="best" departSpeed="max" from="129212233#0" id="bike158" to="361409609" type="bike_bicycle" />
    <trip depart="1131.11" departLane="best" from="-372256216#4" id="bike159" to="619879373" type="bike_bicycle" />
    <trip depart="1138.22" departLane="best" from="49710026" id="bike160" to="75589202#0" type="bike_bicycle" />
    <trip depart="1145.34" departLane="best" from="4401781#4" id="bike161" to="52321641#0" type="bike_bicycle" />
    <trip depart="1152.45" departLane="best" from="-13871250" id="bike162" to="397464856#2" type="bike_bicycle" />
    <trip depart="1159.57" departLane="best" from="-6273612#3" id="bike163" to="619879374#0" type="bike_bicycle" />
    <trip depart="1166.68" departLane="best" from="4401603#4" id="bike164" to="4908199#2" type="bike_bicycle" />
    <trip depart="1173.79" departLane="best" from="4401781#4" id="bike165" to="-48985679" type="bike_bicycle" />
    <trip depart="1180.91" departLane="best" from="436633352" id="bike166" to="-35060879#0" type="bike_bicycle" />
    <trip depart="1188.02" departLane="best" from="52321639#0" id="bike167" to="48985679" type="bike_bicycle" />
    <trip depart="1195.14" departLane="best" from="-436633350#0" id="bike168" to="4408221" type="bike_bicycle" />
    <trip depart="1202.25" departLane="best" from="18927706#4" id="bike169" to="-549289141#2" type="bike_bicycle" />
    <trip depart="1209.36" departLane="best" from="4396159#0" id="bike170" to="-4396159#0" type="bike_bicycle" />
    <trip depart="1216.48" departLane="best" from="-13871230#1" id="bike171" to="-39255350" type="bike_bicycle" />
    <trip depart="1223.59" departLane="best" from="-6273600#1" id="bike172" to="4908204#1" type="bike_bicycle" />
    <trip depart="1237.82" departLane="best" from="3708838#5" id="bike174" to="128450677#1" type="bike_bicycle" />
    <trip depart="1244.93" departLane="best" from="80439756#1" id="bike175" to="31004181#3" type="bike_bicycle" />
    <trip depart="1252.05" departLane="best" from="6273612#0" id="bike176" to="-35078316#0" type="bike_bicycle" />
    <trip depart="1259.16" departLane="best" from="750249501" id="bike177" to="-383996050" type="bike_bicycle" />
    <trip depart="1266.27" departLane="best" from="660472019" id="bike178" to="-48985674#1" type="bike_bicycle" />
    <trip depart="1273.39" departLane="best" from="-35060878#4" id="bike179" to="14047796" type="bike_bicycle" />
    <trip depart="1280.50" departLane="best" from="39255348#1" id="bike180" to="-550187800" type="bike_bicycle" />
    <trip depart="1287.62" departLane="best" from="35081617#0" id="bike181" to="290556058#1" type="bike_bicycle" />
    <trip depart="1294.73" departLane="best" from="125813720" id="bike182" to="35060878#4" type="bike_bicycle" />
    <trip depart="1301.84" departLane="best" from="-473472741" id="bike183" to="38587899#0" type="bike_bicycle" />
    <trip depart="1308.96" departLane="best" from="-125814461#0" id="bike184" to="585819384" type="bike_bicycle" />
    <trip depart="1316.07" departLane="best" from="31004181#5" id="bike185" to="39178107#0" type="bike_bicycle" />
    <trip depart="1323.19" departLane="best" from="39994845" id="bike186" to="3789251#5" type="bike_bicycle" />
    <trip depart="1330.30" departLane="best" from="-75589202#1" id="bike187" to="-290556058#2" type="bike_bicycle" />
    <trip depart="1337.41" departLane="best" from="3789247#1" id="bike188" to="-6273612#2" type="bike_bicycle" />
    <trip depart="1344.53" departLane="best" from="-550187800" id="bike189" to="48461132" type="bike_bicycle" />
    <trip depart="1351.64" departLane="best" from="39178107#1" id="bike190" to="-529166755" type="bike_bicycle" />
    <trip depart="1358.75" departLane="best" from="-549289147" id="bike191" to="129774671#0" type="bike_bicycle" />
    <trip depart="1365.87" departLane="best" from="12854626#0" id="bike192" to="-52321644#2" type="bike_bicycle" />
    <trip depart="1372.98" departLane="best" from="-35081617#1" id="bike193" to="13871230#1" type="bike_bicycle" />
    <trip depart="1380.10" departLane="best" from="6273612#1" id="bike194" to="3789368#5" type="bike_bicycle" />
    <trip depart="1387.21" departLane="best" from="549289142" id="bike195" to="360319693" type="bike_bicycle" />
    <trip depart="1394.32" departLane="best" from="-529166755" id="bike196" to="317027066#0" type="bike_bicycle" />
    <trip depart="1401.44" departLane="best" from="-125813720" id="bike197" to="-52321641#0" type="bike_bicycle" />
    <trip depart="1408.55" departLane="best" from="14047795#1" id="bike198" to="35060880" type="bike_bicycle" />
    <trip depart="1415.67" departLane="best" from="372256221" id="bike199" to="229061163#0" type="bike_bicycle" />
    <trip depart="1422.78" departLane="best" from="14401069#7" id="bike200" to="-422732483#1" type="bike_bicycle" />
    <trip depart="1429.89" departLane="best" from="233075611#1" id="bike201" to="542636896" type="bike_bicycle" />
    <trip depart="1437.01" departLane="best" from="4396159#1" id="bike202" to="-3789372#0" type="bike_bicycle" />
    <trip depart="1444.12" departLane="best" from="-296747003#1" id="bike203" to="291344731#2" type="bike_bicycle" />
    <trip depart="1451.24" departLane="best" from="3708465#4" id="bike204" to="-636824322#1" type="bike_bicycle" />
    <trip depart="1458.35" departLane="best" from="442035815#0" id="bike205" to="401764331" type="bike_bicycle" />
    <trip depart="1465.46" departLane="best" from="3789252#1" id="bike206" to="-4395994#1" type="bike_bicycle" />
    <trip depart="1472.58" departLane="best" from="-401764333#0" id="bike207" to="-13871230#1" type="bike_bicycle" />
    <trip depart="1479.69" departLane="best" from="-461653743" id="bike208" to="233674059" type="bike_bicycle" />
    <trip depart="1486.80" departLane="best" from="48985673#1" id="bike209" to="-291344731#2" type="bike_bicycle" />
    <trip depart="1493.92" departLane="best" from="135582944" id="bike210" to="3708465#4" type="bike_bicycle" />
    <trip depart="1501.03" departLane="best" from="-39255350" id="bike211" to="3789575#0" type="bike_bicycle" />
    <trip depart="1508.15" departLane="best" from="261557474#1" id="bike212" to="-461653743" type="bike_bicycle" />
    <trip depart="1515.26" departLane="best" from="37721991#0" id="bike213" to="-125814598" type="bike_bicycle" />
    <trip depart="1522.37" departLane="best" from="401764333#0" id="bike214" to="41772644#6" type="bike_bicycle" />
    <trip depart="1529.49" departLane="best" from="-35060878#2" id="bike215" to="13871395" type="bike_bicycle" />
    <trip depart="1536.60" departLane="best" from="-3789372#6" id="bike216" to="64270141" type="bike_bicycle" />
    <trip depart="1543.72" departLane="best" from="291344732#1" id="bike217" to="-24231263" type="bike_bicycle" />
    <trip depart="1550.83" departLane="best" from="-461653886" id="bike218" to="48482641#0" type="bike_bicycle" />
    <trip depart="1557.94" departLane="best" departSpeed="max" from="18927706#0" id="bike219" to="4396159#1" type="bike_bicycle" />
    <trip depart="1565.06" departLane="best" from="3789251#1" id="bike220" to="893972083" type="bike_bicycle" />
    <trip depart="1572.17" departLane="best" from="35078319#1" id="bike221" to="64270035#1" type="bike_bicycle" />
    <trip depart="1579.29" departLane="best" from="52375079#1" id="bike222" to="360313819#0" type="bike_bicycle" />
    <trip depart="1586.40" departLane="best" from="39178107#0" id="bike223" to="283027965#0" type="bike_bicycle" />
    <trip depart="1593.51" departLane="best" from="46055277" id="bike224" to="317027066#0" type="bike_bicycle" />
    <trip depart="1600.63" departLane="best" from="542636896" id="bike225" to="39994846#0" type="bike_bicycle" />
    <trip depart="1607.74" departLane="best" from="233674059" id="bike226" to="-48859797#0" type="bike_bicycle" />
    <trip depart="1614.86" departLane="best" from="-461653745" id="bike227" to="3708838#5" type="bike_bicycle" />
    <trip depart="1621.97" departLane="best" from="41772644#5" id="bike228" to="292662749#1" type="bike_bicycle" />
    <trip depart="1629.08" departLane="best" from="370381577#1" id="bike229" to="-50013159" type="bike_bicycle" />
    <trip depart="1636.20" departLane="best" from="-292662748" id="bike230" to="-52321640#2" type="bike_bicycle" />
    <trip depart="1643.31" departLane="best" from="-4908204#1" id="bike231" to="-57936323" type="bike_bicycle" />
    <trip depart="1650.42" departLane="best" from="31004181#8" id="bike232" to="-370381577#0" type="bike_bicycle" />
    <trip depart="1657.54" departLane="best" from="-4401787" id="bike233" to="3789571#4" type="bike_bicycle" />
    <trip depart="1664.65" departLane="best" from="384351845#1" id="bike234" to="-283027968" type="bike_bicycle" />
    <trip depart="1671.77" departLane="best" from="129212233#1" id="bike235" to="310196057#0" type="bike_bicycle" />
    <trip depart="1678.88" departLane="best" from="135582946#0" id="bike236" to="-41772641" type="bike_bicycle" />
    <trip depart="1685.99" departLane="best" from="13871230#0" id="bike237" to="549289141#2" type="bike_bicycle" />
    <trip depart="1693.11" departLane="best" from="35060880" id="bike238" to="3789575#0" type="bike_bicycle" />
    <trip depart="1700.22" departLane="best" from="48985681" id="bike239" to="41772641" type="bike_bicycle" />
    <trip depart="1707.34" departLane="best" from="-94838283#0" id="bike240" to="-125814738#1" type="bike_bicycle" />
    <trip depart="1714.45" departLane="best" from="-648631257#2" id="bike241" to="401767522#0" type="bike_bicycle" />
    <trip depart="1721.56" departLane="best" from="48985674#1" id="bike242" to="64270137#2" type="bike_bicycle" />
    <trip depart="1728.68" departLane="best" from="13871198#1" id="bike243" to="39994849#1" type="bike_bicycle" />
    <trip depart="1735.79" departLane="best" from="31028274" id="bike244" to="35081617#0" type="bike_bicycle" />
    <trip depart="1742.91" departLane="best" from="-422732486" id="bike245" to="-422732486" type="bike_bicycle" />
    <trip depart="1750.02" departLane="best" from="14331347" id="bike246" to="-14047795#3" type="bike_bicycle" />
    <trip depart="1757.13" departLane="best" from="-636824322#1" id="bike247" to="3789372#0" type="bike_bicycle" />
    <trip depart="1764.25" departLane="best" from="12854626#2" id="bike248" to="-3789251#4" type="bike_bicycle" />
    <trip depart="1771.36" departLane="best" from="229119089#1" id="bike249" to="-35081619#1" type="bike_bicycle" />
    <trip depart="1778.47" departLane="best" from="361409608#2" id="bike250" to="-14047795#1" type="bike_bicycle" />
    <trip depart="1785.59" departLane="best" from="127200696" id="bike251" to="33920769#9" type="bike_bicycle" />
    <trip depart="1792.70" departLane="best" from="-14047795#1" id="bike252" to="372245387#1" type="bike_bicycle" />
    <trip depart="1799.82" departLane="best" from="-361409608#0" id="bike253" to="227983488" type="bike_bicycle" />
    <trip depart="1806.93" departLane="best" from="-24807207#0" id="bike254" to="-94838278#3" type="bike_bicycle" />
    <trip depart="1814.04" departLane="best" from="-41772644#1" id="bike255" to="-6273600#0" type="bike_bicycle" />
    <trip depart="1821.16" departLane="best" from="41772640" id="bike256" to="-94838278#3" type="bike_bicycle" />
    <trip depart="1828.27" departLane="best" from="401764333#1" id="bike257" to="445383138" type="bike_bicycle" />
    <trip depart="1835.39" departLane="best" from="-473472738#0" id="bike258" to="-296747003#0" type="bike_bicycle" />
    <trip depart="1842.50" departLane="best" from="-135582946#0" id="bike259" to="31004181#7" type="bike_bicycle" />