<routes xmlns:xsi="http://www.w3.org/2001/XMLSchema-instance" xsi:noNamespaceSchemaLocation="http://sumo.dlr.de/xsd/routes_file.xsd">
    <vType id="moto_motorcycle" vClass="motorcycle">
        <param key="has.ssm.device" value="true" />
        <param key="device.ssm.file" value="Results/HDV-0.85_CAV2-0.075_CAV4-0.075/ssm_motorcycle.xml" />
        <param key="device.ssm.probability" value="1" />
        <param key="device.ssm.deterministic" value="True" />
        <param key="device.ssm.measures" value="TTC PET" />
        <param key="device.ssm.thresholds" value="1.5 1" />
        <param key="device.ssm.range" value="20" />
        <param key="device.ssm.extratime" value="0.5" />
        <param key="device.ssm.trajectories" value="False" />
        <param key="device.ssm.geo" value="True" />
        <param key="has.tripinfo.device" value="true" />
        <param key="device.tripinfo.probability" value="true" />
        
    </vType>
    <trip depart="0.00" departLane="best" from="3789250#1" id="moto0" to="-135582840#1" type="moto_motorcycle" />
    <trip depart="13.13" departLane="best" from="-64270137#3" id="moto1" to="-52321640#0" type="moto_motorcycle" />
    <trip depart="26.27" departLane="best" from="39994845" id="moto2" to="3789571#0" type="moto_motorcycle" />
    <trip depart="39.40" departLane="best" from="529166754" id="moto3" to="-35078316#0" type="moto_motorcycle" />
    <trip depart="52.54" departLane="best" from="242586599" id="moto4" to="-13871198#1" type="moto_motorcycle" />
    <trip depart="78.80" departLane="best" from="-135582944" id="moto6" to="-4396159#1" type="moto_motorcycle" />
    <trip depart="91.94" departLane="best" from="3789252#1" id="moto7" to="35078321#1" type="moto_motorcycle" />
    <trip depart="105.07" departLane="best" from="-52321639#3" id="moto8" to="3708577" type="moto_motorcycle" />
    <trip depart="118.21" departLane="best" from="4401781#1" id="moto9" to="-125814491#1" type="moto_motorcycle" />
    <trip depart="131.34" departLane="best" from="4401661#1" id="moto10" to="38358177" type="moto_motorcycle" />
    <trip depart="144.48" departLane="best" from="12854626#1" id="moto11" to="-3789372#5" type="moto_motorcycle" />
    <trip depart="157.61" departLane="best" from="-35078322#2" id="moto12" to="-35078322#4" type="moto_motorcycle" />
    <trip depart="170.74" departLane="best" from="48985680" id="moto13" to="372226859#0" type="moto_motorcycle" />
    <trip depart="183.88" departLane="best" from="4401661#3" id="moto14" to="39255348#6" type="moto_motorcycle" />
    <trip depart="197.01" departLane="best" from="35078315#0" id="moto15" to="80433528" type="moto_motorcycle" />
    <trip depart="210.15" departLane="best" from="14331345" id="moto16" to="35078322#3" type="moto_motorcycle" />
    <trip depart="223.28" departLane="best" from="474590054" id="moto17" to="372256216#7" type="moto_motorcycle" />
    <trip depart="236.41" departLane="best" from="52321639#3" id="moto18" to="370381577#1" type="moto_motorcycle" />
    <trip depart="249.55" departLane="best" from="39178091#0" id="moto19" to="-30988140" type="moto_motorcycle" />
    <trip depart="262.68" departLane="best" from="-52321641#2" id="moto20" to="-7989950#0" type="moto_motorcycle" />
    <trip depart="275.82" departLane="best" from="-35078311" id="moto21" to="-52321641#4" type="moto_motorcycle" />
    <trip depart="288.95" departLane="best" from="-354380392#0" id="moto22" to="-64270139#0" type="moto_motorcycle" />
    <trip depart="302.09" departLane="best" from="3789247#0" id="moto23" to="13871198#1" type="moto_motorcycle" />
    <trip depart="315.22" departLane="best" from="13871260" id="moto24" to="-48985674#0" type="moto_motorcycle" />
    <trip depart="328.35" departLane="best" from="-64226715#3" id="moto25" to="63908781" type="moto_motorcycle" />
    <trip depart="341.49" departLane="best" from="3789251#5" id="moto26" to="372245388#1" type="moto_motorcycle" />
    <trip depart="354.62" departLane="best" from="-39179549#2" id="moto27" to="39255348#5" type="moto_motorcycle" />
    <trip depart="367.76" departLane="best" from="-39178107#0" id="moto28" to="13907386" type="moto_motorcycle" />
    <trip depart="380.89" departLane="best" from="94838278#0" id="moto29" to="3789251#1" type="moto_motorcycle" />
    <trip depart="394.02" departLane="best" from="35078322#3" id="moto30" to="3789572" type="moto_motorcycle" />
    <trip depart="407.16" departLane="best" from="48985674#0" id="moto31" to="432565295#2" type="moto_motorcycle" />
    <trip depart="420.29" departLane="best" from="-52321641#2" id="moto32" to="-13871230#0" type="moto_motorcycle" />
    <trip depart="433.43" departLane="best" from="125814461#1" id="moto33" to="-64226715#3" type="moto_motorcycle" />
    <trip depart="446.56" departLane="best" from="-48985678" id="moto34" to="64270137#0" type="moto_motorcycle" />
    <trip depart="459.70" departLane="best" from="52321642#1" id="moto35" to="125814461#0" type="moto_motorcycle" />
    <trip depart="472.83" departLane="best" from="3789368#2" id="moto36" to="14401069#8" type="moto_motorcycle" />
    <trip depart="485.96" departLane="best" from="59172069#2" id="moto37" to="31004181#3" type="moto_motorcycle" />
    <trip depart="499.10" departLane="best" from="-63908781" id="moto38" to="-529166755" type="moto_motorcycle" />
    <trip depart="512.23" departLane="best" from="35078325" id="moto39" to="-6273612#5" type="moto_motorcycle" />
    <trip depart="525.37" departLane="best" from="3708463#1" id="moto40" to="529166754" type="moto_motorcycle" />
    <trip depart="538.50" departLane="best" from="153340544#1" id="moto41" to="-52321639#1" type="moto_motorcycle" />
    <trip depart="551.63" departLane="best" from="-35078322#0" id="moto42" to="-30988140" type="moto_motorcycle" />
    <trip depart="564.77" departLane="best" from="-3708463#2" id="moto43" to="37722081#1" type="moto_motorcycle" />
    <trip depart="577.90" departLane="best" from="4396159#1" id="moto44" to="24231262" type="moto_motorcycle" />
    <trip depart="591.04" departLane="best" from="-334138114#4" id="moto45" to="14327271" type="moto_motorcycle" />
    <trip depart="604.17" departLane="best" from="94838283#2" id="moto46" to="35078314#2" type="moto_motorcycle" />
    <trip depart="617.30" departLane="best" from="7989950#2" id="moto47" to="4908204#1" type="moto_motorcycle" />
    <trip depart="630.44" departLane="best" from="-125814738#2" id="moto48" to="39255345#1" type="moto_motorcycle" />
    <trip depart="643.57" departLane="best" from="3789571#2" id="moto49" to="35078316#2" type="moto_motorcycle" />
    <trip depart="656.71" departLane="best" from="-64226715#3" id="moto50" to="3789251#1" type="moto_motorcycle" />
    <trip depart="669.84" departLane="best" from="-3708465#0" id="moto51" to="24807207#0" type="moto_motorcycle" />
    <trip depart="682.98" departLane="best" from="30988142#0" id="moto52" to="64361352" type="moto_motorcycle" />
    <trip depart="696.11" departLane="best" from="52321642#1" id="moto53" to="-636824321" type="moto_motorcycle" />
    <trip depart="709.24" departLane="best" from="33920769#9" id="moto54" to="-401912432#3" type="moto_motorcycle" />
    <trip depart="722.38" departLane="best" from="585819384" id="moto55" to="52321640#2" type="moto_motorcycle" />
    <trip depart="735.51" departLane="best" from="-909777279" id="moto56" to="3789251#0" type="moto_motorcycle" />
    <trip depart="748.65" departLane="best" from="372226859#0" id="moto57" to="-3789372#3" type="moto_motorcycle" />
    <trip depart="761.78" departLane="best" from="41772644#1" id="moto58" to="35078319#1" type="moto_motorcycle" />
    <trip depart="774.91" departLane="best" from="432565295#8" id="moto59" to="35078315#0" type="moto_motorcycle" />
    <trip depart="788.05" departLane="best" from="-125813720" id="moto60" to="125814738#2" type="moto_motorcycle" />
    <trip depart="814.32" departLane="best" from="52321644#1" id="moto62" to="46055277" type="moto_motorcycle" />
    <trip depart="827.45" departLane="best" from="-94838283#2" id="moto63" to="-334138114#0" type="moto_motorcycle" />
    <trip depart="840.59" departLane="best" from="52321644#0" id="moto64" to="64270137#3" type="moto_motorcycle" />
    <trip depart="853.72" departLane="best" from="-35078316#0" id="moto65" to="334138114#5" type="moto_motorcycle" />
    <trip depart="866.85" departLane="best" from="-35060878#2" id="moto66" to="41772639#1" type="moto_motorcycle" />
    <trip depart="879.99" departLane="best" from="41772644#6" id="moto67" to="-372256216#4" type="moto_motorcycle" />
    <trip depart="893.12" departLane="best" from="317027066#2" id="moto68" to="35078322#2" type="moto_motorcycle" />
    <trip depart="906.26" departLane="best" from="-63908781" id="moto69" to="52321641#0" type="moto_motorcycle" />
    <trip depart="919.39" departLane="best" from="242586600" id="moto70" to="-48985678" type="moto_motorcycle" />
    <trip depart="932.52" departLane="best" from="35078316#0" id="moto71" to="39255348#6" type="moto_motorcycle" />
    <trip depart="945.66" departLane="best" from="-4401787" id="moto72" to="-94838283#4" type="moto_motorcycle" />
    <trip depart="958.79" departLane="best" from="94838283#1" id="moto73" to="3789252#2" type="moto_motorcycle" />
    <trip depart="971.93" departLane="best" departSpeed="max" from="25631272#0" id="moto74" to="35060879#0" type="moto_motorcycle" />
    <trip depart="985.06" departLane="best" from="-372226859#0" id="moto75" to="-52321640#1" type="moto_motorcycle" />
    <trip depart="998.19" departLane="best" from="12854626#0" id="moto76" to="3708577" type="moto_motorcycle" />
    <trip depart="1011.33" departLane="best" from="-52321641#3" id="moto77" to="-52321639#2" type="moto_motorcycle" />
    <trip depart="1024.46" departLane="best" from="-35060878#3" id="moto78" to="3787679" type="moto_motorcycle" />
    <trip depart="1037.60" departLane="best" from="-52321641#2" id="moto79" to="563891693" type="moto_motorcycle" />
    <trip depart="1050.73" departLane="best" from="52321639#2" id="moto80" to="-35060878#2" type="moto_motorcycle" />
    <trip depart="1063.87" departLane="best" from="-52321644#1" id="moto81" to="3789372#6" type="moto_motorcycle" />
    <trip depart="1077.00" departLane="best" from="-48985680" id="moto82" to="-372256221" type="moto_motorcycle" />
    <trip depart="1090.13" departLane="best" from="636824322#1" id="moto83" to="361409608#3" type="moto_motorcycle" />
    <trip depart="1103.27" departLane="best" from="317027066#0" id="moto84" to="43538582" type="moto_motorcycle" />
    <trip depart="1116.40" departLane="best" from="4401661#3" id="moto85" to="-41772644#5" type="moto_motorcycle" />
    <trip depart="1129.54" departLane="best" from="-35078324#0" id="moto86" to="244844370#2" type="moto_motorcycle" />
    <trip depart="1142.67" departLane="best" from="242586600" id="moto87" to="310196058" type="moto_motorcycle" />
    <trip depart="1155.80" departLane="best" from="39255348#6" id="moto88" to="3789374#1" type="moto_motorcycle" />
    <trip depart="1168.94" departLane="best" from="909777279" id="moto89" to="-35078324#0" type="moto_motorcycle" />
    <trip depart="1182.07" departLane="best" from="52321639#3" id="moto90" to="-59172069#2" type="moto_motorcycle" />
    <trip depart="1195.21" departLane="best" from="-41772644#6" id="moto91" to="292662748" type="moto_motorcycle" />
    <trip depart="1208.34" departLane="best" from="242586599" id="moto92" to="-64270139#0" type="moto_motorcycle" />
    <trip depart="1221.48" departLane="best" from="-6273600#0" id="moto93" to="6273610#3" type="moto_motorcycle" />
    <trip depart="1234.61" departLane="best" from="27806076#1" id="moto94" to="52321639#0" type="moto_motorcycle" />
    <trip depart="1247.74" departLane="best" from="35078321#1" id="moto95" to="-310196058" type="moto_motorcycle" />
    <trip depart="1260.88" departLane="best" from="94838283#4" id="moto96" to="48461131" type="moto_motorcycle" />
    <trip depart="1274.01" departLane="best" from="7989950#0" id="moto97" to="6273612#1" type="moto_motorcycle" />
    <trip depart="1287.15" departLane="best" from="48985680" id="moto98" to="-39178107#1" type="moto_motorcycle" />
    <trip depart="1300.28" departLane="best" from="334138114#2" id="moto99" to="-48985679" type="moto_motorcycle" />
    <trip depart="1313.41" departLane="best" from="14331347" id="moto100" to="909777280" type="moto_motorcycle" />
    <trip depart="1326.55" departLane="best" from="-63908781" id="moto101" to="432565295#8" type="moto_motorcycle" />
    <trip depart="1339.68" departLane="best" from="31004181#0" id="moto102" to="24231263" type="moto_motorcycle" />
    <trip depart="1352.82" departLane="best" from="35078322#2" id="moto103" to="39255345#0" type="moto_motorcycle" />
    <trip depart="1365.95" departLane="best" from="-3789372#5" id="moto104" to="-8403822#0" type="moto_motorcycle" />
    <trip depart="1379.09" departLane="best" from="7989950#0" id="moto105" to="3708463#1" type="moto_motorcycle" />
    <trip depart="1392.22" departLane="best" from="35078316#2" id="moto106" to="39994849#3" type="moto_motorcycle" />
    <trip depart="1405.35" departLane="best" from="-317027067" id="moto107" to="3708465#3" type="moto_motorcycle" />
    <trip depart="1418.49" departLane="best" from="33921278#1" id="moto108" to="48985680" type="moto_motorcycle" />
    <trip depart="1431.62" departLane="best" from="-3789372#7" id="moto109" to="750249501" type="moto_motorcycle" />
    <trip depart="1444.76" departLane="best" from="-35078311" id="moto110" to="-41772643" type="moto_motorcycle" />
    <trip depart="1457.89" departLane="best" from="3708578#3" id="moto111" to="3789374#3" type="moto_motorcycle" />
    <trip depart="1471.02" departLane="best" from="-52321642#1" id="moto112" to="-3708643" type="moto_motorcycle" />
    <trip depart="1484.16" departLane="best" from="52822147#2" id="moto113" to="-529166755" type="moto_motorcycle" />
    <trip depart="1497.29" departLane="best" from="3708577" id="moto114" to="372256221" type="moto_motorcycle" />
    <trip depart="1510.43" departLane="best" from="24231262" id="moto115" to="3708465#3" type="moto_motorcycle" />
    <trip depart="1523.56" departLane="best" from="35060879#0" id="moto116" to="636824321" type="moto_motorcycle" />
    <trip depart="1536.69" departLane="best" from="-48985673#0" id="moto117" to="39179549#2" type="moto_motorcycle" />
    <trip depart="1549.83" departLane="best" from="-52321644#1" id="moto118" to="14401069#8" type="moto_motorcycle" />
    <trip depart="1562.96" departLane="best" from="3789372#7" id="moto119" to="-909777279" type="moto_motorcycle" />
    <trip depart="1576.10" departLane="best" from="125814491#0" id="moto120" to="401912432#4" type="moto_motorcycle" />
    <trip depart="1589.23" departLane="best" from="-35060878#4" id="moto121" to="31004181#3" type="moto_motorcycle" />
    <trip depart="1602.37" departLane="best" from="94838283#3" id="moto122" to="94838283#2" type="moto_motorcycle" />
    <trip depart="1615.50" departLane="best" from="-35060878#4" id="moto123" to="-48985679" type="moto_motorcycle" />
    <trip depart="1628.63" departLane="best" from="-63908781" id="moto124" to="6273612#5" type="moto_motorcycle" />
    <trip depart="1641.77" departLane="best" from="52321644#2" id="moto125" to="52321642#0" type="moto_motorcycle" />
    <trip depart="1654.90" departLane="best" from="13871252#1" id="moto126" to="-3789372#6" type="moto_motorcycle" />
    <trip depart="1668.04" departLane="best" from="48482641#0" id="moto127" to="38587899#1" type="moto_motorcycle" />
    <trip depart="1681.17" departLane="best" from="372245387#1" id="moto128" to="913681361" type="moto_motorcycle" />
    <trip depart="1694.30" departLane="best" from="3789368#1" id="moto129" to="-125814598" type="moto_motorcycle" />
    <trip depart="1720.57" departLane="best" from="3789372#1" id="moto131" to="64226715#3" type="moto_motorcycle" />
    <trip depart="1733.71" departLane="best" from="-3789251#0" id="moto132" to="-3708465#5" type="moto_motorcycle" />
    <trip depart="1746.84" departLane="best" from="-3708463#0" id="moto133" to="35078322#4" type="moto_motorcycle" />
    <trip depart="1759.98" departLane="best" from="-64270137#1" id="moto134" to="372245387#0" type="moto_motorcycle" />
    <trip depart="1773.11" departLane="best" from="39255345#0" id="moto135" to="-48859797#0" type="moto_motorcycle" />
    <trip depart="1786.24" departLane="best" from="3787679" id="moto136" to="-636824321" type="moto_motorcycle" />
    <trip depart="1799.38" departLane="best" from="334138114#4" id="moto137" to="563891693" type="moto_motorcycle" />
    <trip depart="1812.51" departLane="best" from="48985679" id="moto138" to="-35078322#1" type="moto_motorcycle" />
    <trip depart="1825.65" departLane="best" from="242586600" id="moto139" to="-64270137#3" type="moto_motorcycle" />
    <trip depart="1838.78" departLane="best" from="3789247#1" id="moto140" to="-6273612#5" type="moto_motorcycle" />
    <trip depart="1851.91" departLane="best" from="39994846#2" id="moto141" to="35078322#3" type="moto_motorcycle" />
    <trip depart="1865.05" departLane="best" from="244844370#2" id="moto142" to="-125814738#1" type="moto_motorcycle" />
    <trip depart="1878.18" departLane="best" from="-35060879#1" id="moto143" to="52321644#0" type="moto_motorcycle" />
    <trip depart="1904.45" departLane="best" from="48482641#1" id="moto145" to="3708465#0" type="moto_motorcycle" />
    <trip depart="1917.58" departLane="best" from="-3789372#0" id="moto146" to="-372256216#4" type="moto_motorcycle" />
    <trip depart="1930.72" departLane="best" from="-94838283#2" id="moto147" to="529166755" type="moto_motorcycle" />
    <trip depart="1943.85" departLane="best" from="4401603#1" id="moto148" to="4908204#1" type="moto_motorcycle" />
    <trip depart="1956.99" departLane="best" departSpeed="max" from="556390402#0" id="moto149" to="-48985674#1" type="moto_motorcycle" />
    <trip depart="1970.12" departLane="best" from="-5976030" id="moto150" to="-360319695#0" type="moto_motorcycle" />
    <trip depart="1983.26" departLane="best" from="4395970" id="moto151" to="52321644#1" type="moto_motorcycle" />
    <trip depart="1996.39" departLane="best" from="-3789372#5" id="moto152" to="6273612#3" type="moto_motorcycle" />
    <trip depart="2009.52" departLane="best" from="52321640#1" id="moto153" to="80439756#2" type="moto_motorcycle" />
    <trip depart="2022.66" departLane="best" from="4401781#2" id="moto154" to="52321642#1" type="moto_motorcycle" />
    <trip depart="2035.79" departLane="best" from="-135582840#1" id="moto155" to="397464856#3" type="moto_motorcycle" />
    <trip depart="2062.06" departLane="best" departSpeed="max" from="4401661#0" id="moto157" to="52321639#1" type="moto_motorcycle" />
    <trip depart="2075.19" departLane="best" from="4401781#2" id="moto158" to="-63908781" type="moto_motorcycle" />
    <trip depart="2088.33" departLane="best" from="4396064#0" id="moto159" to="-3708463#1" type="moto_motorcycle" />
    <trip depart="2101.46" departLane="best" from="52321641#4" id="moto160" to="4908199#2" type="moto_motorcycle" />
    <trip depart="2114.60" departLane="best" from="-52321640#0" id="moto161" to="4401781#2" type="moto_motorcycle" />
    <trip depart="2127.73" departLane="best" from="31004181#4" id="moto162" to="-94838278#3" type="moto_motorcycle" />
    <trip depart="2140.87" departLane="best" from="4401603#0" id="moto163" to="-52321641#0" type="moto_motorcycle" />
    <trip depart="2154.00" departLane="best" from="-135582840#1" id="moto164" to="-4395994#1" type="moto_motorcycle" />
    <trip depart="2180.27" departLane="best" from="75589201" id="moto166" to="-64270139#0" type="moto_motorcycle" />
    <trip depart="2193.40" departLane="best" from="3789251#0" id="moto167" to="147077493#0" type="moto_motorcycle" />
    <trip depart="2206.54" departLane="best" from="876578186" id="moto168" to="35078316#2" type="moto_motorcycle" />
    <trip depart="2219.67" departLane="best" from="64226715#3" id="moto169" to="-3708465#5" type="moto_motorcycle" />
    <trip depart="2232.80" departLane="best" from="7989950#1" id="moto170" to="-401912432#3" type="moto_motorcycle" />
    <trip depart="2245.94" departLane="best" from="750249502" id="moto171" to="-636824322#1" type="moto_motorcycle" />
    <trip depart="2259.07" departLane="best" from="-3708463#1" id="moto172" to="24807207#0" type="moto_motorcycle" />
    <trip depart="2272.21" departLane="best" from="39255348#6" id="moto173" to="125813720" type="moto_motorcycle" />
    <trip depart="2298.48" departLane="best" from="14401069#4" id="moto175" to="370381577#1" type="moto_motorcycle" />
    <trip depart="2311.61" departLane="best" from="-6273612#1" id="moto176" to="39178107#0" type="moto_motorcycle" />
    <trip depart="2324.74" departLane="best" from="-125814461#0" id="moto177" to="6273612#0" type="moto_motorcycle" />
    <trip depart="2337.88" departLane="best" from="35078315#1" id="moto178" to="39255345#1" type="moto_motorcycle" />
    <trip depart="2351.01" departLane="best" from="39994849#0" id="moto179" to="3789374#0" type="moto_motorcycle" />
    <trip depart="2364.15" departLane="best" from="13871230#1" id="moto180" to="-35060878#2" type="moto_motorcycle" />
    <trip depart="2377.28" departLane="best" from="3789372#2" id="moto181" to="128450676#0" type="moto_motorcycle" />
    <trip depart="2390.41" departLane="best" from="125814461#0" id="moto182" to="48985674#1" type="moto_motorcycle" />
    <trip depart="2403.55" departLane="best" from="39255348#0" id="moto183" to="-909777279" type="moto_motorcycle" />
    <trip depart="2416.68" departLane="best" from="18927706#1" id="moto184" to="-8403822#0" type="moto_motorcycle" />
    <trip depart="2429.82" departLane="best" from="-372256216#4" id="moto185" to="233674059" type="moto_motorcycle" />
    <trip depart="2442.95" departLane="best" from="64270035#0" id="moto186" to="3789571#0" type="moto_motorcycle" />
    <trip depart="2456.08" departLane="best" from="563891693" id="moto187" to="372256216#4" type="moto_motorcycle" />
    <trip depart="2469.22" departLane="best" from="-94838278#0" id="moto188" to="35078322#0" type="moto_motorcycle" />
    <trip depart="2482.35" departLane="best" from="-125813720" id="moto189" to="-75589201" type="moto_motorcycle" />
    <trip depart="2495.49" departLane="best" from="24769545#0" id="moto190" to="3708463#1" type="moto_motorcycle" />
    <trip depart="2508.62" departLane="best" from="3789368#1" id="moto191" to="31004181#8" type="moto_motorcycle" />
    <trip depart="2521.76" departLane="best" from="27806076#1" id="moto192" to="-48985679" type="moto_motorcycle" />
    <trip depart="2534.89" departLane="best" from="317027066#1" id="moto193" to="556040851#1" type="moto_motorcycle" />
    <trip depart="2548.02" departLane="best" from="4401603#1" id="moto194" to="-39179549#0" type="moto_motorcycle" />
    <trip depart="2561.16" departLane="best" from="-35078314#2" id="moto195" to="35060878#3" type="moto_motorcycle" />
    <trip depart="2574.29" departLane="best" from="3787679" id="moto196" to="128450676#3" type="moto_motorcycle" />
    <trip depart="2587.43" departLane="best" from="4408221" id="moto197" to="401912432#3" type="moto_motorcycle" />
    <trip depart="2600.56" departLane="best" from="3789374#0" id="moto198" to="-52321640#1" type="moto_motorcycle" />
    <trip depart="2613.69" departLane="best" from="-4396159#3" id="moto199" to="-135582840#1" type="moto_motorcycle" />
    <trip depart="2626.83" departLane="best" from="-529166755" id="moto200" to="317027066#2" type="moto_motorcycle" />
    <trip depart="2639.96" departLane="best" from="4908185" id="moto201" to="-35060878#4" type="moto_motorcycle" />
    <trip depart="2653.10" departLane="best" from="23086918#0" id="moto202" to="37865098#0" type="moto_motorcycle" />
    <trip depart="2666.23" departLane="best" from="-4396064#1" id="moto203" to="3791905#3" type="moto_motorcycle" />
    <trip depart="2679.37" departLane="best" from="33920769#10" id="moto204" to="-52324406" type="moto_motorcycle" />
    <trip depart="2692.50" departLane="best" from="3789368#2" id="moto205" to="-125814491#0" type="moto_motorcycle" />
    <trip depart="2705.63" departLane="best" from="401912432#4" id="moto206" to="41772644#6" type="moto_motorcycle" />
    <trip depart="2718.77" departLane="best" from="-3708463#0" id="moto207" to="242586599" type="moto_motorcycle" />
    <trip depart="2731.90" departLane="best" from="-401912432#2" id="moto208" to="682430068#0" type="moto_motorcycle" />
    <trip depart="2745.04" departLane="best" from="35060878#1" id="moto209" to="-310196055" type="moto_motorcycle" />
    <trip depart="2758.17" departLane="best" from="-5976030" id="moto210" to="48985674#1" type="moto_motorcycle" />
    <trip depart="2771.30" departLane="best" from="31004181#1" id="moto211" to="4396159#3" type="moto_motorcycle" />
    <trip depart="2784.44" departLane="best" from="3789372#4" id="moto212" to="913681361" type="moto_motorcycle" />
    <trip depart="2797.57" departLane="best" from="3708578#3" id="moto213" to="64270139#1" type="moto_motorcycle" />
    <trip depart="2810.71" departLane="best" from="529166754" id="moto214" to="372256216#1" type="moto_motorcycle" />
    <trip depart="2823.84" departLane="best" from="39255345#1" id="moto215" to="33969753#3" type="moto_motorcycle" />
    <trip depart="2850.11" departLane="best" from="556040851#1" id="moto217" to="39994849#0" type="moto_motorcycle" />
    <trip depart="2863.24" departLane="best" from="317027066#2" id="moto218" to="-6273612#3" type="moto_motorcycle" />
    <trip depart="2876.38" departLane="best" from="-59172069#2" id="moto219" to="3789250#1" type="moto_motorcycle" />
    <trip depart="2889.51" departLane="best" from="41772644#6" id="moto220" to="35060879#2" type="moto_motorcycle" />
    <trip depart="2915.78" departLane="best" from="-35060879#2" id="moto222" to="-67139161#4" type="moto_motorcycle" />
    <trip depart="2928.91" departLane="best" from="-64270137#1" id="moto223" to="125814491#1" type="moto_motorcycle" />
    <trip depart="2942.05" departLane="best" from="35078316#0" id="moto224" to="-3789251#2" type="moto_motorcycle" />
    <trip depart="2955.18" departLane="best" from="-52321641#4" id="moto225" to="3791905#2" type="moto_motorcycle" />
    <trip depart="2968.32" departLane="best" from="39178107#0" id="moto226" to="-334138114#4" type="moto_motorcycle" />
    <trip depart="2981.45" departLane="best" from="18927706#4" id="moto227" to="35078321#0" type="moto_motorcycle" />
    <trip depart="2994.58" departLane="best" from="23086918#1" id="moto228" to="-48985673#1" type="moto_motorcycle" />
    <trip depart="3007.72" departLane="best" from="24231263" id="moto229" to="563891693" type="moto_motorcycle" />
    <trip depart="3020.85" departLane="best" from="52321639#0" id="moto230" to="41772644#0" type="moto_motorcycle" />
    <trip depart="3033.99" departLane="best" from="135582840#0" id="moto231" to="404268319" type="moto_motorcycle" />
    <trip depart="3047.12" departLane="best" from="4908199#2" id="moto232" to="64361352" type="moto_motorcycle" />
    <trip depart="3060.26" departLane="best" from="24231262" id="moto233" to="39994849#3" type="moto_motorcycle" />
    <trip depart="3073.39" departLane="best" from="35078319#1" id="moto234" to="372226859#0" type="moto_motorcycle" />
    <trip depart="3086.52" departLane="best" from="-52321639#3" id="moto235" to="-52321639#1" type="moto_motorcycle" />
    <trip depart="3099.66" departLane="best" from="24807207#2" id="moto236" to="-13871198#0" type="moto_motorcycle" />
    <trip depart="3125.93" departLane="best" from="310196058" id="moto238" to="-372256216#4" type="moto_motorcycle" />
    <trip depart="3139.06" departLane="best" from="372256216#6" id="moto239" to="-135582944" type="moto_motorcycle" />
    <trip depart="3152.19" departLane="best" from="147077493#0" id="moto240" to="360319695#0" type="moto_motorcycle" />
    <trip depart="3165.33" departLane="best" from="-135582944" id="moto241" to="3789251#3" type="moto_motorcycle" />
    <trip depart="3178.46" departLane="best" from="-3789251#1" id="moto242" to="31004181#5" type="moto_motorcycle" />
    <trip depart="3191.60" departLane="best" from="-48985679" id="moto243" to="127200696" type="moto_motorcycle" />
    <trip depart="3204.73" departLane="best" from="41772644#0" id="moto244" to="13907386" type="moto_motorcycle" />
    <trip depart="3217.87" departLane="best" from="404268319" id="moto245" to="46055277" type="moto_motorcycle" />
    <trip depart="3231.00" departLane="best" from="-6273600#1" id="moto246" to="-35078314#0" type="moto_motorcycle" />
    <trip depart="3257.27" departLane="best" from="3789252#1" id="moto248" to="432565295#6" type="moto_motorcycle" />
    <trip depart="3270.40" departLane="best" from="3789252#2" id="moto249" to="404268319" type="moto_motorcycle" />
    <trip depart="3283.54" departLane="best" from="64270139#0" id="moto250" to="-4396159#1" type="moto_motorcycle" />
    <trip depart="3309.80" departLane="best" from="-372256216#3" id="moto252" to="3789372#7" type="moto_motorcycle" />
    <trip depart="3322.94" departLane="best" from="360313819#0" id="moto253" to="-52321639#0" type="moto_motorcycle" />
    <trip depart="3336.07" departLane="best" from="38587823" id="moto254" to="41772644#1" type="moto_motorcycle" />
    <trip depart="3349.21" departLane="best" from="-39179549#0" id="moto255" to="372245388#0" type="moto_motorcycle" />
    <trip depart="3362.34" departLane="best" from="401912432#2" id="moto256" to="-3708465#4" type="moto_motorcycle" />
    <trip depart="3375.47" departLane="best" from="4408221" id="moto257" to="750330957" type="moto_motorcycle" />
    <trip depart="3388.61" departLane="best" from="-3708463#1" id="moto258" to="-135582840#3" type="moto_motorcycle" />