<routes xmlns:xsi="http://www.w3.org/2001/XMLSchema-instance" xsi:noNamespaceSchemaLocation="http://sumo.dlr.de/xsd/routes_file.xsd">
    <vType id="bus_bus" vClass="bus">
        <param key="has.ssm.device" value="true" />
        <param key="device.ssm.file" value="Results/HDV-0.85_CAV2-0.075_CAV4-0.075/ssm_bus.xml" />
        <param key="device.ssm.probability" value="1" />
        <param key="device.ssm.deterministic" value="True" />
        <param key="device.ssm.measures" value="TTC PET" />
        <param key="device.ssm.thresholds" value="1.5 1" />
        <param key="device.ssm.range" value="20" />
        <param key="device.ssm.extratime" value="0.5" />
        <param key="device.ssm.trajectories" value="False" />
        <param key="device.ssm.geo" value="True" />
        <param key="has.tripinfo.device" value="true" />
        <param key="device.tripinfo.probability" value="true" />
    </vType>
    <trip depart="0.00" departLane="best" from="4401781#2" id="bus0" to="-125814491#1" type="bus_bus" />
    <trip depart="26.27" departLane="best" from="67139161#3" id="bus2" to="128450677#3" type="bus_bus" />
    <trip depart="39.40" departLane="best" from="4908199#0" id="bus3" to="372245388#1" type="bus_bus" />
    <trip depart="52.54" departLane="best" from="35078311" id="bus4" to="80433528" type="bus_bus" />
    <trip depart="65.67" departLane="best" from="52321640#2" id="bus5" to="3708463#2" type="bus_bus" />
    <trip depart="78.80" departLane="best" departSpeed="max" from="14401069#0" id="bus6" to="-4908185" type="bus_bus" />
    <trip depart="91.94" departLane="best" from="-39179549#1" id="bus7" to="14327271" type="bus_bus" />
    <trip depart="105.07" departLane="best" from="94838278#0" id="bus8" to="3789251#2" type="bus_bus" />
    <trip depart="131.34" departLane="best" from="52321644#2" id="bus10" to="125814738#2" type="bus_bus" />
    <trip depart="144.48" departLane="best" from="585819383#1" id="bus11" to="31004181#4" type="bus_bus" />
    <trip depart="157.61" departLane="best" from="370381577#0" id="bus12" to="52822147#1" type="bus_bus" />
    <trip depart="170.74" departLane="best" departSpeed="max" from="18927706#0" id="bus13" to="-52321640#2" type="bus_bus" />
    <trip depart="183.88" departLane="best" from="94838283#3" id="bus14" to="35060878#1" type="bus_bus" />
    <trip depart="197.01" departLane="best" from="-35078322#3" id="bus15" to="-30988141" type="bus_bus" />
    <trip depart="210.15" departLane="best" from="-3708465#4" id="bus16" to="37865098#0" type="bus_bus" />
    <trip depart="223.28" departLane="best" from="-334138114#5" id="bus17" to="14327272#0" type="bus_bus" />
    <trip depart="236.41" departLane="best" from="94838283#2" id="bus18" to="35078315#1" type="bus_bus" />
    <trip depart="249.55" departLane="best" from="31004181#0" id="bus19" to="64270141" type="bus_bus" />
    <trip depart="262.68" departLane="best" from="33920769#8" id="bus20" to="-41772641" type="bus_bus" />
    <trip depart="275.82" departLane="best" from="-94838283#4" id="bus21" to="3789251#1" type="bus_bus" />
    <trip depart="288.95" departLane="best" from="4395982#1" id="bus22" to="35078316#0" type="bus_bus" />
    <trip depart="302.09" departLane="best" from="-125813720" id="bus23" to="128450676#3" type="bus_bus" />
    <trip depart="328.35" departLane="best" from="94838283#1" id="bus25" to="3789368#1" type="bus_bus" />
    <trip depart="341.49" departLane="best" from="129212233#1" id="bus26" to="3708643" type="bus_bus" />
    <trip depart="354.62" departLane="best" from="-35060879#0" id="bus27" to="3789247#0" type="bus_bus" />
    <trip depart="367.76" departLane="best" from="-59172069#2" id="bus28" to="3789374#0" type="bus_bus" />
    <trip depart="380.89" departLane="best" from="4401781#0" id="bus29" to="-4396064#1" type="bus_bus" />
    <trip depart="394.02" departLane="best" from="-354380392#0" id="bus30" to="244844370#2" type="bus_bus" />
    <trip depart="407.16" departLane="best" from="397464856#1" id="bus31" to="3789571#0" type="bus_bus" />
    <trip depart="420.29" departLane="best" from="893972083" id="bus32" to="-354380392#0" type="bus_bus" />
    <trip depart="433.43" departLane="best" from="-4396159#1" id="bus33" to="30988140" type="bus_bus" />
    <trip depart="446.56" departLane="best" from="27806076#1" id="bus34" to="4908199#1" type="bus_bus" />
    <trip depart="472.83" departLane="best" from="7989950#0" id="bus36" to="6273610#3" type="bus_bus" />
    <trip depart="485.96" departLane="best" from="334138114#0" id="bus37" to="-52321639#2" type="bus_bus" />
    <trip depart="499.10" departLane="best" from="18927706#1" id="bus38" to="-334138114#1" type="bus_bus" />
    <trip depart="512.23" departLane="best" from="14401069#4" id="bus39" to="909777279" type="bus_bus" />
    <trip depart="525.37" departLane="best" from="67139161#3" id="bus40" to="94838283#1" type="bus_bus" />
    <trip depart="538.50" departLane="best" from="35078321#2" id="bus41" to="39255345#0" type="bus_bus" />
    <trip depart="551.63" departLane="best" from="75589201" id="bus42" to="3708465#3" type="bus_bus" />
    <trip depart="577.90" departLane="best" from="3708465#4" id="bus44" to="37722081#0" type="bus_bus" />
    <trip depart="591.04" departLane="best" from="-59172069#2" id="bus45" to="14401069#8" type="bus_bus" />
    <trip depart="604.17" departLane="best" from="3789372#7" id="bus46" to="-94838283#2" type="bus_bus" />
    <trip depart="630.44" departLane="best" from="-35060879#1" id="bus48" to="31004181#3" type="bus_bus" />
    <trip depart="643.57" departLane="best" from="-35060879#1" id="bus49" to="-52321639#1" type="bus_bus" />
    <trip depart="669.84" departLane="best" from="3789368#1" id="bus51" to="-125814598" type="bus_bus" />
    <trip depart="682.98" departLane="best" from="4408221" id="bus52" to="-94838283#1" type="bus_bus" />
    <trip depart="696.11" departLane="best" from="3789372#1" id="bus53" to="63908781" type="bus_bus" />
    <trip depart="709.24" departLane="best" from="-3789251#4" id="bus54" to="-3708578#4" type="bus_bus" />
    <trip depart="722.38" departLane="best" from="-67139161#3" id="bus55" to="372256216#0" type="bus_bus" />
    <trip depart="735.51" departLane="best" from="3787679" id="bus56" to="-64270137#0" type="bus_bus" />
    <trip depart="748.65" departLane="best" from="334138114#2" id="bus57" to="556040851#1" type="bus_bus" />
    <trip depart="774.91" departLane="best" from="4401603#4" id="bus59" to="4908199#0" type="bus_bus" />
    <trip depart="788.05" departLane="best" departSpeed="max" from="556390402#0" id="bus60" to="-4908185" type="bus_bus" />
    <trip depart="801.18" departLane="best" from="4395994#0" id="bus61" to="52321642#1" type="bus_bus" />
    <trip depart="814.32" departLane="best" from="-39178091#0" id="bus62" to="6273612#2" type="bus_bus" />
    <trip depart="827.45" departLane="best" from="4401781#3" id="bus63" to="52321641#5" type="bus_bus" />
    <trip depart="840.59" departLane="best" departSpeed="max" from="129212233#0" id="bus64" to="6273612#2" type="bus_bus" />
    <trip depart="853.72" departLane="best" departSpeed="max" from="4401661#0" id="bus65" to="4908204#1" type="bus_bus" />
    <trip depart="866.85" departLane="best" from="4401781#3" id="bus66" to="-64270137#2" type="bus_bus" />
    <trip depart="879.99" departLane="best" from="4396159#1" id="bus67" to="-3708465#0" type="bus_bus" />
    <trip depart="893.12" departLane="best" from="52321642#1" id="bus68" to="4908185" type="bus_bus" />
    <trip depart="919.39" departLane="best" from="4401603#4" id="bus70" to="-52321641#5" type="bus_bus" />
    <trip depart="932.52" departLane="best" from="750330957" id="bus71" to="-75589201" type="bus_bus" />
    <trip depart="945.66" departLane="best" from="636824322#1" id="bus72" to="-3708578#4" type="bus_bus" />
    <trip depart="958.79" departLane="best" from="3708838#5" id="bus73" to="35060878#2" type="bus_bus" />
    <trip depart="971.93" departLane="best" from="147075690" id="bus74" to="3708463#2" type="bus_bus" />
    <trip depart="985.06" departLane="best" from="-125814461#0" id="bus75" to="6273610#3" type="bus_bus" />
    <trip depart="998.19" departLane="best" from="3789372#2" id="bus76" to="128450677#3" type="bus_bus" />
    <trip depart="1011.33" departLane="best" from="127546529#0" id="bus77" to="48985672" type="bus_bus" />
    <trip depart="1024.46" departLane="best" from="39255348#1" id="bus78" to="-94838283#2" type="bus_bus" />
    <trip depart="1037.60" departLane="best" from="125814738#1" id="bus79" to="18927706#3" type="bus_bus" />
    <trip depart="1050.73" departLane="best" from="18927706#2" id="bus80" to="-94838278#3" type="bus_bus" />
    <trip depart="1063.87" departLane="best" from="125814461#0" id="bus81" to="35078322#3" type="bus_bus" />
    <trip depart="1077.00" departLane="best" from="-125813720" id="bus82" to="-8403822#0" type="bus_bus" />
    <trip depart="1090.13" departLane="best" from="27806076#1" id="bus83" to="-52321639#2" type="bus_bus" />
    <trip depart="1103.27" departLane="best" from="317027066#2" id="bus84" to="529166755" type="bus_bus" />
    <trip depart="1116.40" departLane="best" from="4401603#4" id="bus85" to="-39255350" type="bus_bus" />
    <trip depart="1129.54" departLane="best" from="37722081#1" id="bus86" to="128450677#3" type="bus_bus" />
    <trip depart="1142.67" departLane="best" from="4908199#1" id="bus87" to="-35060879#0" type="bus_bus" />
    <trip depart="1155.80" departLane="best" from="-48859797#0" id="bus88" to="3791905#3" type="bus_bus" />
    <trip depart="1168.94" departLane="best" from="33920769#1" id="bus89" to="-6273600#0" type="bus_bus" />
    <trip depart="1182.07" departLane="best" from="3789368#2" id="bus90" to="-125814491#0" type="bus_bus" />
    <trip depart="1195.21" departLane="best" from="-41772641" id="bus91" to="67139161#4" type="bus_bus" />
    <trip depart="1208.34" departLane="best" from="31004181#2" id="bus92" to="4396064#0" type="bus_bus" />
    <trip depart="1221.48" departLane="best" from="3789372#4" id="bus93" to="913681361" type="bus_bus" />
    <trip depart="1234.61" departLane="best" from="3708465#5" id="bus94" to="64270139#0" type="bus_bus" />
    <trip depart="1260.88" departLane="best" from="48482641#0" id="bus96" to="35078322#3" type="bus_bus" />
    <trip depart="1274.01" departLane="best" departSpeed="max" from="556390402#0" id="bus97" to="39994849#1" type="bus_bus" />
    <trip depart="1287.15" departLane="best" from="317027067" id="bus98" to="-63908781" type="bus_bus" />
    <trip depart="1300.28" departLane="best" from="432565295#1" id="bus99" to="35060881" type="bus_bus" />
    <trip depart="1313.41" departLane="best" from="372256221" id="bus100" to="-64361352" type="bus_bus" />
    <trip depart="1326.55" departLane="best" from="-67139161#3" id="bus101" to="128450676#0" type="bus_bus" />
    <trip depart="1339.68" departLane="best" from="-52321644#2" id="bus102" to="3791905#3" type="bus_bus" />
    <trip depart="1352.82" departLane="best" from="242586600" id="bus103" to="556040851#1" type="bus_bus" />
    <trip depart="1365.95" departLane="best" from="370381577#0" id="bus104" to="3791905#3" type="bus_bus" />
    <trip depart="1379.09" departLane="best" from="14401069#6" id="bus105" to="-125814491#1" type="bus_bus" />
    <trip depart="1392.22" departLane="best" from="13871198#1" id="bus106" to="404268319" type="bus_bus" />
    <trip depart="1405.35" departLane="best" departSpeed="max" from="25631272#0" id="bus107" to="-13871198#1" type="bus_bus" />
    <trip depart="1418.49" departLane="best" departSpeed="max" from="129212233#0" id="bus108" to="3789571#4" type="bus_bus" />
    <trip depart="1431.62" departLane="best" from="18927706#4" id="bus109" to="-39179549#1" type="bus_bus" />
    <trip depart="1444.76" departLane="best" departSpeed="max" from="18927706#0" id="bus110" to="361409608#1" type="bus_bus" />
    <trip depart="1457.89" departLane="best" from="-3789251#5" id="bus111" to="31004181#7" type="bus_bus" />
    <trip depart="1471.02" departLane="best" from="-317027066#0" id="bus112" to="14327271" type="bus_bus" />
    <trip depart="1484.16" departLane="best" from="-52321639#2" id="bus113" to="128450677#1" type="bus_bus" />
    <trip depart="1497.29" departLane="best" from="-636824321" id="bus114" to="-35078314#2" type="bus_bus" />
    <trip depart="1523.56" departLane="best" from="94838283#4" id="bus116" to="135582840#3" type="bus_bus" />
    <trip depart="1549.83" departLane="best" from="401912432#4" id="bus118" to="-3708578#3" type="bus_bus" />
    <trip depart="1562.96" departLane="best" from="4408238#1" id="bus119" to="750330944" type="bus_bus" />
    <trip depart="1576.10" departLane="best" from="-3708465#3" id="bus120" to="-135582840#3" type="bus_bus" />
    <trip depart="1589.23" departLane="best" from="125863788" id="bus121" to="3789571#2" type="bus_bus" />
    <trip depart="1602.37" departLane="best" from="3789578" id="bus122" to="37865098#0" type="bus_bus" />
    <trip depart="1615.50" departLane="best" from="-3708463#0" id="bus123" to="41772644#6" type="bus_bus" />
    <trip depart="1628.63" departLane="best" from="4908199#2" id="bus124" to="372245387#1" type="bus_bus" />
    <trip depart="1641.77" departLane="best" from="24807207#0" id="bus125" to="13907386" type="bus_bus" />
    <trip depart="1654.90" departLane="best" from="-3708463#2" id="bus126" to="682430068#1" type="bus_bus" />
    <trip depart="1668.04" departLane="best" from="39994845" id="bus127" to="750330944" type="bus_bus" />
    <trip depart="1681.17" departLane="best" from="-64361352" id="bus128" to="4401603#0" type="bus_bus" />
    <trip depart="1694.30" departLane="best" from="35078314#1" id="bus129" to="334138114#4" type="bus_bus" />
    <trip depart="1707.44" departLane="best" departSpeed="max" from="25631272#0" id="bus130" to="39255350" type="bus_bus" />
    <trip depart="1720.57" departLane="best" from="48482641#0" id="bus131" to="-35078316#2" type="bus_bus" />
    <trip depart="1733.71" departLane="best" from="14401069#4" id="bus132" to="-13871198#1" type="bus_bus" />
    <trip depart="1759.98" departLane="best" from="38587899#1" id="bus134" to="-67139161#3" type="bus_bus" />
    <trip depart="1773.11" departLane="best" from="-125814738#2" id="bus135" to="64270137#2" type="bus_bus" />
    <trip depart="1786.24" departLane="best" from="334138114#2" id="bus136" to="40641511" type="bus_bus" />
    <trip depart="1799.38" departLane="best" from="334138114#4" id="bus137" to="43538582" type="bus_bus" />
    <trip depart="1812.51" departLane="best" from="3791905#0" id="bus138" to="125814461#0" type="bus_bus" />
    <trip depart="1825.65" departLane="best" from="361409609" id="bus139" to="317027066#2" type="bus_bus" />
    <trip depart="1838.78" departLane="best" from="401912432#3" id="bus140" to="128450677#3" type="bus_bus" />
    <trip depart="1851.91" departLane="best" from="39178091#0" id="bus141" to="-64270139#1" type="bus_bus" />
    <trip depart="1865.05" departLane="best" from="35078311" id="bus142" to="41772639#1" type="bus_bus" />
    <trip depart="1878.18" departLane="best" departSpeed="max" from="317127417" id="bus143" to="39255348#2" type="bus_bus" />
    <trip depart="1891.32" departLane="best" from="80439756#2" id="bus144" to="35078314#1" type="bus_bus" />
    <trip depart="1904.45" departLane="best" from="-48859797#0" id="bus145" to="-52321641#5" type="bus_bus" />
    <trip depart="1917.58" departLane="best" from="35060881" id="bus146" to="-64361352" type="bus_bus" />
    <trip depart="1930.72" departLane="best" from="52321642#1" id="bus147" to="3708463#0" type="bus_bus" />
    <trip depart="1956.99" departLane="best" from="35078322#4" id="bus149" to="125813720" type="bus_bus" />
    <trip depart="1970.12" departLane="best" from="94838283#0" id="bus150" to="-372226859#0" type="bus_bus" />
    <trip depart="1983.26" departLane="best" from="4401603#0" id="bus151" to="-52321641#4" type="bus_bus" />
    <trip depart="1996.39" departLane="best" from="35060878#0" id="bus152" to="30988141" type="bus_bus" />
    <trip depart="2009.52" departLane="best" from="27806076#1" id="bus153" to="4908199#0" type="bus_bus" />
    <trip depart="2022.66" departLane="best" from="3789368#6" id="bus154" to="-39178091#0" type="bus_bus" />
    <trip depart="2035.79" departLane="best" from="3708465#4" id="bus155" to="-909777279" type="bus_bus" />
    <trip depart="2048.93" departLane="best" from="-52321644#2" id="bus156" to="39178091#1" type="bus_bus" />
    <trip depart="2062.06" departLane="best" from="4396159#1" id="bus157" to="37865098#0" type="bus_bus" />
    <trip depart="2075.19" departLane="best" from="474590054" id="bus158" to="-35060878#4" type="bus_bus" />
    <trip depart="2088.33" departLane="best" from="-94838278#0" id="bus159" to="-372256216#4" type="bus_bus" />
    <trip depart="2101.46" departLane="best" from="64270035#0" id="bus160" to="33969753#2" type="bus_bus" />
    <trip depart="2127.73" departLane="best" from="48985672" id="bus162" to="3708463#1" type="bus_bus" />
    <trip depart="2140.87" departLane="best" from="64270139#0" id="bus163" to="94838283#4" type="bus_bus" />
    <trip depart="2154.00" departLane="best" from="334138114#5" id="bus164" to="-35078322#2" type="bus_bus" />
    <trip depart="2167.13" departLane="best" from="135582944" id="bus165" to="128450677#3" type="bus_bus" />
    <trip depart="2180.27" departLane="best" from="-94838278#0" id="bus166" to="64270137#0" type="bus_bus" />
    <trip depart="2193.40" departLane="best" from="4401787" id="bus167" to="35078322#4" type="bus_bus" />
    <trip depart="2206.54" departLane="best" from="913681361" id="bus168" to="3789372#1" type="bus_bus" />
    <trip depart="2219.67" departLane="best" from="-4396064#1" id="bus169" to="13871250" type="bus_bus" />
    <trip depart="2232.80" departLane="best" from="41772643" id="bus170" to="37865098#0" type="bus_bus" />
    <trip depart="2245.94" departLane="best" from="-372256216#3" id="bus171" to="80433528" type="bus_bus" />
    <trip depart="2259.07" departLane="best" from="3716925" id="bus172" to="-563891693" type="bus_bus" />
    <trip depart="2272.21" departLane="best" from="-39178107#1" id="bus173" to="35078324#0" type="bus_bus" />
    <trip depart="2285.34" departLane="best" from="94838278#3" id="bus174" to="585819383#1" type="bus_bus" />
    <trip depart="2298.48" departLane="best" from="48482641#1" id="bus175" to="33921278#1" type="bus_bus" />
    <trip depart="2311.61" departLane="best" from="-67139161#4" id="bus176" to="445383138" type="bus_bus" />
    <trip depart="2324.74" departLane="best" from="8403822#1" id="bus177" to="-6273600#0" type="bus_bus" />
    <trip depart="2337.88" departLane="best" from="35078320" id="bus178" to="14327272#0" type="bus_bus" />
    <trip depart="2351.01" departLane="best" from="-7989950#0" id="bus179" to="43538582" type="bus_bus" />
    <trip depart="2364.15" departLane="best" from="-8403822#0" id="bus180" to="-94838283#1" type="bus_bus" />
    <trip depart="2377.28" departLane="best" from="334138114#3" id="bus181" to="-3789372#3" type="bus_bus" />
    <trip depart="2390.41" departLane="best" from="35078314#1" id="bus182" to="129774671#0" type="bus_bus" />
    <trip depart="2403.55" departLane="best" from="-4396159#0" id="bus183" to="3791905#3" type="bus_bus" />
    <trip depart="2416.68" departLane="best" from="4395970" id="bus184" to="-292662748" type="bus_bus" />
    <trip depart="2429.82" departLane="best" from="401912432#2" id="bus185" to="39178091#0" type="bus_bus" />
    <trip depart="2442.95" departLane="best" from="3708463#2" id="bus186" to="52321639#3" type="bus_bus" />
    <trip depart="2456.08" departLane="best" from="52321644#0" id="bus187" to="27806076#0" type="bus_bus" />
    <trip depart="2469.22" departLane="best" from="35060878#3" id="bus188" to="31004181#2" type="bus_bus" />
    <trip depart="2482.35" departLane="best" from="39255348#3" id="bus189" to="18927706#4" type="bus_bus" />
    <trip depart="2495.49" departLane="best" from="31028274" id="bus190" to="7989950#0" type="bus_bus" />
    <trip depart="2508.62" departLane="best" from="4908204#1" id="bus191" to="4908185" type="bus_bus" />
    <trip depart="2521.76" departLane="best" from="14401069#6" id="bus192" to="127200696" type="bus_bus" />
    <trip depart="2534.89" departLane="best" from="52321642#1" id="bus193" to="-14331347" type="bus_bus" />
    <trip depart="2548.02" departLane="best" from="-35060878#3" id="bus194" to="3789247#0" type="bus_bus" />
    <trip depart="2574.29" departLane="best" from="-360319695#0" id="bus196" to="3789250#0" type="bus_bus" />
    <trip depart="2587.43" departLane="best" from="52321642#1" id="bus197" to="27806076#2" type="bus_bus" />
    <trip depart="2600.56" departLane="best" from="-30988141" id="bus198" to="4395982#0" type="bus_bus" />
    <trip depart="2613.69" departLane="best" from="-6273600#0" id="bus199" to="585819383#1" type="bus_bus" />
    <trip depart="2626.83" departLane="best" from="-3789372#1" id="bus200" to="31004181#5" type="bus_bus" />
    <trip depart="2639.96" departLane="best" from="-125814738#1" id="bus201" to="4396159#0" type="bus_bus" />
    <trip depart="2653.10" departLane="best" from="-39178107#0" id="bus202" to="27806076#1" type="bus_bus" />
    <trip depart="2666.23" departLane="best" from="135582840#3" id="bus203" to="3708643" type="bus_bus" />
    <trip depart="2679.37" departLane="best" from="-6273612#5" id="bus204" to="48859797#0" type="bus_bus" />
    <trip depart="2692.50" departLane="best" from="-48985674#0" id="bus205" to="14327272#0" type="bus_bus" />
    <trip depart="2705.63" departLane="best" departSpeed="max" from="317127417" id="bus206" to="-52324406" type="bus_bus" />
    <trip depart="2718.77" departLane="best" from="-75589201" id="bus207" to="361409608#3" type="bus_bus" />
    <trip depart="2731.90" departLane="best" from="-310196058" id="bus208" to="372256216#1" type="bus_bus" />
    <trip depart="2745.04" departLane="best" from="-893972084" id="bus209" to="4395994#0" type="bus_bus" />
    <trip depart="2758.17" departLane="best" from="3789247#0" id="bus210" to="37722081#1" type="bus_bus" />
    <trip depart="2784.44" departLane="best" from="27806076#0" id="bus212" to="3708465#3" type="bus_bus" />
    <trip depart="2797.57" departLane="best" from="-94838283#1" id="bus213" to="39994849#3" type="bus_bus" />
    <trip depart="2810.71" departLane="best" from="35078314#1" id="bus214" to="7989950#2" type="bus_bus" />
    <trip depart="2823.84" departLane="best" from="35060879#1" id="bus215" to="585819383#1" type="bus_bus" />
    <trip depart="2850.11" departLane="best" from="129212233#1" id="bus217" to="-3708578#4" type="bus_bus" />
    <trip depart="2863.24" departLane="best" from="750249501" id="bus218" to="-3789252#2" type="bus_bus" />
    <trip depart="2876.38" departLane="best" from="39255348#4" id="bus219" to="8403822#0" type="bus_bus" />
    <trip depart="2889.51" departLane="best" from="750330957" id="bus220" to="4396159#0" type="bus_bus" />
    <trip depart="2915.78" departLane="best" from="3789374#0" id="bus222" to="3708578#3" type="bus_bus" />
    <trip depart="2942.05" departLane="best" from="-3708465#3" id="bus224" to="-52321644#2" type="bus_bus" />
    <trip depart="2955.18" departLane="best" from="-52321641#3" id="bus225" to="-334138114#5" type="bus_bus" />
    <trip depart="2994.58" departLane="best" from="125814491#0" id="bus228" to="33920769#7" type="bus_bus" />
    <trip depart="3007.72" departLane="best" from="-354380392#0" id="bus229" to="52321644#1" type="bus_bus" />
    <trip depart="3020.85" departLane="best" from="233674059" id="bus230" to="-360319695#0" type="bus_bus" />
    <trip depart="3047.12" departLane="best" from="-370381577#0" id="bus232" to="3789578" type="bus_bus" />
    <trip depart="3060.26" departLane="best" from="13871252#0" id="bus233" to="147075690" type="bus_bus" />
    <trip depart="3073.39" departLane="best" from="4396159#1" id="bus234" to="-6273600#0" type="bus_bus" />
    <trip depart="3086.52" departLane="best" from="-4908185" id="bus235" to="-52321639#3" type="bus_bus" />
    <trip depart="3099.66" departLane="best" from="52321641#5" id="bus236" to="128450677#2" type="bus_bus" />
    <trip depart="3112.79" departLane="best" from="-125814461#1" id="bus237" to="4908185" type="bus_bus" />
    <trip depart="3139.06" departLane="best" from="-41772639#1" id="bus239" to="-317027066#1" type="bus_bus" />
    <trip depart="3152.19" departLane="best" from="4395982#0" id="bus240" to="35060878#4" type="bus_bus" />
    <trip depart="3178.46" departLane="best" from="35060878#0" id="bus242" to="31004181#3" type="bus_bus" />
    <trip depart="3191.60" departLane="best" from="750249502" id="bus243" to="-334138114#3" type="bus_bus" />
    <trip depart="3204.73" departLane="best" departSpeed="max" from="317127417" id="bus244" to="147077493#2" type="bus_bus" />
    <trip depart="3217.87" departLane="best" from="3789572" id="bus245" to="33920769#2" type="bus_bus" />
    <trip depart="3231.00" departLane="best" from="585819381#0" id="bus246" to="-35060879#1" type="bus_bus" />
    <trip depart="3244.13" departLane="best" from="-35060878#1" id="bus247" to="-64361352" type="bus_bus" />
    <trip depart="3257.27" departLane="best" from="12854626#0" id="bus248" to="94838283#1" type="bus_bus" />
    <trip depart="3270.40" departLane="best" from="35060879#1" id="bus249" to="31004181#0" type="bus_bus" />
    <trip depart="3283.54" departLane="best" from="3708838#4" id="bus250" to="-360319695#0" type="bus_bus" />
    <trip depart="3296.67" departLane="best" from="30988141" id="bus251" to="-52321642#0" type="bus_bus" />
    <trip depart="3309.80" departLane="best" from="129212233#1" id="bus252" to="31004181#0" type="bus_bus" />
    <trip depart="3322.94" departLane="best" departSpeed="max" from="14401069#0" id="bus253" to="-3789372#6" type="bus_bus" />
    <trip depart="3336.07" departLane="best" from="48482641#0" id="bus254" to="-35078322#4" type="bus_bus" />
    <trip depart="3349.21" departLane="best" from="-354380392#0" id="bus255" to="39994846#0" type="bus_bus" />
    <trip depart="3362.34" departLane="best" from="3708463#0" id="bus256" to="360319695#0" type="bus_bus" />
    <trip depart="3375.47" departLane="best" from="39255348#2" id="bus257" to="75589201" type="bus_bus" />
    <trip depart="3388.61" departLane="best" from="3708643" id="bus258" to="135582842" type="bus_bus" />
    <trip depart="3401.74" departLane="best" from="361409608#2" id="bus259" to="-52321639#1" type="bus_bus" />
    <trip depart="3414.88" departLane="best" from="6273612#0" id="bus260" to="4408221" type="bus_bus" />
    <trip depart="3428.01" departLane="best" from="-64270139#1" id="bus261" to="-41772643" type="bus_bus" />
    <trip depart="3454.28" departLane="best" from="52321641#5" id="bus263" to="361409608#3" type="bus_bus" />
    <trip depart="3467.41" departLane="best" from="18927706#1" id="bus264" to="-3789252#3" type="bus_bus" />
    <trip depart="3480.55" departLane="best" from="37722081#1" id="bus265" to="-13871230#0" type="bus_bus" />
    <trip depart="3493.68" departLane="best" from="4395970" id="bus266" to="361409609" type="bus_bus" />
    <trip depart="3506.82" departLane="best" from="3789374#1" id="bus267" to="-64270139#1" type="bus_bus" />
    <trip depart="3519.95" departLane="best" from="27806076#0" id="bus268" to="-64270141" type="bus_bus" />
    <trip depart="3533.08" departLane="best" from="3789571#0" id="bus269" to="33920769#0" type="bus_bus" />
    <trip depart="3546.22" departLane="best" from="-63908781" id="bus270" to="128450677#2" type="bus_bus" />
    <trip depart="3559.35" departLane="best" from="-125814598" id="bus271" to="39994849#3" type="bus_bus" />
    <trip depart="3572.49" departLane="best" from="39178091#1" id="bus272" to="33969753#2" type="bus_bus" />
    <trip depart="3585.62" departLane="best" from="48859797#0" id="bus273" to="4396159#1" type="bus_bus" />
    <trip depart="3598.76" departLane="best" from="-35060879#1" id="bus274" to="4908199#1" type="bus_bus" />
</routes>