<routes xmlns:xsi="http://www.w3.org/2001/XMLSchema-instance" xsi:noNamespaceSchemaLocation="http://sumo.dlr.de/xsd/routes_file.xsd">

    <vType carFollowModel="IDM" id="CAV4" minGap="1" probability="0.075" sigma="0.05" speedDev="0.05" tau="0.5" vClass="passenger">
        <param key="has.ssm.device" value="true" />
        <param key="device.ssm.file" value="Results/HDV-0.85_CAV2-0.075_CAV4-0.075/ssm_passenger.xml" />
        <param key="device.ssm.probability" value="1" />
        <param key="device.ssm.deterministic" value="True" />
        <param key="device.ssm.measures" value="TTC PET" />
        <param key="device.ssm.thresholds" value="1.5 1" />
        <param key="device.ssm.range" value="20" />
        <param key="device.ssm.extratime" value="0.5" />
        <param key="device.ssm.trajectories" value="False" />
        <param key="device.ssm.geo" value="True" />
        <param key="has.tripinfo.device" value="true" />
        <param key="device.tripinfo.probability" value="true" />
    </vType>
    <vType carFollowModel="CACC" id="CAV2" lcStrategic="0.5" minGap="1.5" probability="0.075" sigma="0.05" speedDev="0.05" tau="0.8" vClass="passenger">
        <param key="has.ssm.device" value="true" />
        <param key="device.ssm.file" value="Results/HDV-0.85_CAV2-0.075_CAV4-0.075/ssm_CAV2.xml" />
        <param key="device.ssm.probability" value="1" />
        <param key="device.ssm.deterministic" value="True" />
        <param key="device.ssm.measures" value="TTC PET" />
        <param key="device.ssm.thresholds" value="1.5 1" />
        <param key="device.ssm.range" value="20" />
        <param key="device.ssm.extratime" value="0.5" />
        <param key="device.ssm.trajectories" value="False" />
        <param key="device.ssm.geo" value="True" />
        <param key="has.tripinfo.device" value="true" />
        <param key="device.tripinfo.probability" value="true" />
    </vType>
    <vType id="HDC" lcStrategic="0.5" probability="0.85" tau="1.2" vClass="passenger">
        <param key="has.ssm.device" value="true" />
        <param key="device.ssm.file" value="Results/HDV-0.85_CAV2-0.075_CAV4-0.075/ssm_passenger.xml" />
        <param key="device.ssm.probability" value="1" />
        <param key="device.ssm.deterministic" value="True" />
        <param key="device.ssm.measures" value="TTC PET" />
        <param key="device.ssm.thresholds" value="1.5 1" />
        <param key="device.ssm.range" value="20" />
        <param key="device.ssm.extratime" value="0.5" />
        <param key="device.ssm.trajectories" value="False" />
        <param key="device.ssm.geo" value="True" />
        <param key="has.tripinfo.device" value="true" />
        <param key="device.tripinfo.probability" value="true" />
    </vType>

    <vTypeDistribution id="veh_passenger" vTypes="HDC CAV2 CAV4" />

    <trip depart="0.00" departLane="best" departSpeed="max" from="556390402#0" id="veh0" to="-35078325" type="veh_passenger" />
    <trip depart="4.38" departLane="best" departSpeed="max" from="25631272#0" id="veh1" to="-13871250" type="veh_passenger" />
    <trip depart="8.76" departLane="best" from="-52321641#4" id="veh2" to="35078314#1" type="veh_passenger" />
    <trip depart="13.13" departLane="best" from="3789368#5" id="veh3" to="361409608#1" type="veh_passenger" />
    <trip depart="17.51" departLane="best" from="-52321641#5" id="veh4" to="372245387#0" type="veh_passenger" />
    <trip depart="21.89" departLane="best" from="4401787" id="veh5" to="-125814598" type="veh_passenger" />
    <trip depart="26.27" departLane="best" from="4401781#2" id="veh6" to="3791905#3" type="veh_passenger" />
    <trip depart="30.65" departLane="best" from="13871230#1" id="veh7" to="-39179549#0" type="veh_passenger" />
    <trip depart="35.02" departLane="best" from="-370381577#1" id="veh8" to="-3708463#1" type="veh_passenger" />
    <trip depart="39.40" departLane="best" from="4908199#2" id="veh9" to="372256216#6" type="veh_passenger" />
    <trip depart="43.78" departLane="best" from="4401781#3" id="veh10" to="39255348#5" type="veh_passenger" />
    <trip depart="48.16" departLane="best" from="35078322#1" id="veh11" to="7989950#2" type="veh_passenger" />
    <trip depart="52.54" departLane="best" departSpeed="max" from="18927706#0" id="veh12" to="361409609" type="veh_passenger" />
    <trip depart="56.91" departLane="best" from="48482641#0" id="veh13" to="37865098#0" type="veh_passenger" />
    <trip depart="61.29" departLane="best" from="52321641#1" id="veh14" to="3708838#3" type="veh_passenger" />
    <trip depart="65.67" departLane="best" from="39178138" id="veh15" to="-317027066#0" type="veh_passenger" />
    <trip depart="70.05" departLane="best" from="-52321644#2" id="veh16" to="-94838283#3" type="veh_passenger" />
    <trip depart="74.43" departLane="best" from="-35078322#1" id="veh17" to="-529166755" type="veh_passenger" />
    <trip depart="78.80" departLane="best" from="-3708465#4" id="veh18" to="-893972084" type="veh_passenger" />
    <trip depart="83.18" departLane="best" from="3789251#2" id="veh19" to="13907388" type="veh_passenger" />
    <trip depart="87.56" departLane="best" from="147075690" id="veh20" to="-52321640#1" type="veh_passenger" />
    <trip depart="91.94" departLane="best" from="-75589201" id="veh21" to="6273612#2" type="veh_passenger" />
    <trip depart="96.32" departLane="best" from="3789368#3" id="veh22" to="37721991#0" type="veh_passenger" />
    <trip depart="100.70" departLane="best" from="-401912432#3" id="veh23" to="14331347" type="veh_passenger" />
    <trip depart="105.07" departLane="best" from="913681361" id="veh24" to="3789252#2" type="veh_passenger" />
    <trip depart="109.45" departLane="best" from="361409608#0" id="veh25" to="3791905#1" type="veh_passenger" />
    <trip depart="113.83" departLane="best" from="-52324405" id="veh26" to="-14331347" type="veh_passenger" />
    <trip depart="118.21" departLane="best" from="12854626#1" id="veh27" to="-75589201" type="veh_passenger" />
    <trip depart="122.59" departLane="best" from="-52321641#0" id="veh28" to="636824322#1" type="veh_passenger" />
    <trip depart="126.96" departLane="best" from="52321644#2" id="veh29" to="128450677#2" type="veh_passenger" />
    <trip depart="135.72" departLane="best" from="585819381#0" id="veh31" to="317027066#0" type="veh_passenger" />
    <trip depart="140.10" departLane="best" from="-67139161#4" id="veh32" to="-6273612#5" type="veh_passenger" />
    <trip depart="144.48" departLane="best" from="361409608#3" id="veh33" to="-64270141" type="veh_passenger" />
    <trip depart="148.85" departLane="best" from="3708578#4" id="veh34" to="52375079#0" type="veh_passenger" />
    <trip depart="153.23" departLane="best" from="24231262" id="veh35" to="-52321641#4" type="veh_passenger" />
    <trip depart="157.61" departLane="best" from="94838283#3" id="veh36" to="35078315#1" type="veh_passenger" />
    <trip depart="161.99" departLane="best" from="-370381577#0" id="veh37" to="-317027066#1" type="veh_passenger" />
    <trip depart="166.37" departLane="best" from="-372256216#0" id="veh38" to="3789247#1" type="veh_passenger" />
    <trip depart="170.74" departLane="best" from="4401603#3" id="veh39" to="24769545#0" type="veh_passenger" />
    <trip depart="179.50" departLane="best" from="94838283#1" id="veh41" to="35078324#0" type="veh_passenger" />
    <trip depart="183.88" departLane="best" from="7989950#0" id="veh42" to="48985680" type="veh_passenger" />
    <trip depart="192.63" departLane="best" from="3791905#0" id="veh44" to="360313819#2" type="veh_passenger" />
    <trip depart="197.01" departLane="best" from="-75589201" id="veh45" to="3789252#2" type="veh_passenger" />
    <trip depart="201.39" departLane="best" from="-372256216#3" id="veh46" to="292236197" type="veh_passenger" />
    <trip depart="205.77" departLane="best" from="31028274" id="veh47" to="64270139#0" type="veh_passenger" />
    <trip depart="210.15" departLane="best" from="35059863#2" id="veh48" to="-4395994#1" type="veh_passenger" />
    <trip depart="218.90" departLane="best" from="125814738#2" id="veh50" to="3789252#1" type="veh_passenger" />
    <trip depart="223.28" departLane="best" from="372256216#1" id="veh51" to="-39178107#1" type="veh_passenger" />
    <trip depart="227.66" departLane="best" from="432565295#3" id="veh52" to="360319693" type="veh_passenger" />
    <trip depart="232.04" departLane="best" from="4396064#0" id="veh53" to="35078325" type="veh_passenger" />
    <trip depart="236.41" departLane="best" from="-125813720" id="veh54" to="12854626#2" type="veh_passenger" />
    <trip depart="240.79" departLane="best" from="-135582840#0" id="veh55" to="6273610#0" type="veh_passenger" />
    <trip depart="245.17" departLane="best" from="52324406" id="veh56" to="4408238#0" type="veh_passenger" />
    <trip depart="253.93" departLane="best" from="52324406" id="veh58" to="64270035#1" type="veh_passenger" />
    <trip depart="258.30" departLane="best" from="-35078311" id="veh59" to="41772639#0" type="veh_passenger" />
    <trip depart="262.68" departLane="best" from="334138114#3" id="veh60" to="361409608#3" type="veh_passenger" />
    <trip depart="267.06" departLane="best" from="-67139161#4" id="veh61" to="52321640#0" type="veh_passenger" />
    <trip depart="271.44" departLane="best" departSpeed="max" from="25631272#0" id="veh62" to="-52321641#0" type="veh_passenger" />
    <trip depart="275.82" departLane="best" from="35078322#4" id="veh63" to="39255348#5" type="veh_passenger" />
    <trip depart="280.20" departLane="best" from="-4908185" id="veh64" to="128450677#0" type="veh_passenger" />
    <trip depart="284.57" departLane="best" from="94838283#1" id="veh65" to="3789372#0" type="veh_passenger" />
    <trip depart="288.95" departLane="best" from="30988142#0" id="veh66" to="35078320" type="veh_passenger" />
    <trip depart="293.33" departLane="best" from="-3787679" id="veh67" to="-52321642#0" type="veh_passenger" />
    <trip depart="297.71" departLane="best" from="13871198#1" id="veh68" to="372245387#0" type="veh_passenger" />
    <trip depart="302.09" departLane="best" from="-35078314#0" id="veh69" to="3789251#0" type="veh_passenger" />
    <trip depart="306.46" departLane="best" from="-52324405" id="veh70" to="529166755" type="veh_passenger" />
    <trip depart="310.84" departLane="best" from="52321641#0" id="veh71" to="-35078314#0" type="veh_passenger" />
    <trip depart="315.22" departLane="best" from="-6273600#1" id="veh72" to="3789571#3" type="veh_passenger" />
    <trip depart="319.60" departLane="best" from="-52321641#2" id="veh73" to="-3789252#2" type="veh_passenger" />
    <trip depart="323.98" departLane="best" from="6273612#1" id="veh74" to="3708578#3" type="veh_passenger" />
    <trip depart="328.35" departLane="best" from="334138114#1" id="veh75" to="432565295#7" type="veh_passenger" />
    <trip depart="332.73" departLane="best" from="4401781#4" id="veh76" to="-48859797#0" type="veh_passenger" />
    <trip depart="337.11" departLane="best" from="-3708463#2" id="veh77" to="27806076#1" type="veh_passenger" />
    <trip depart="341.49" departLane="best" departSpeed="max" from="25631272#0" id="veh78" to="334138114#2" type="veh_passenger" />
    <trip depart="345.87" departLane="best" from="893972083" id="veh79" to="-3708463#2" type="veh_passenger" />
    <trip depart="350.24" departLane="best" from="242586600" id="veh80" to="13871198#1" type="veh_passenger" />
    <trip depart="354.62" departLane="best" from="52321641#1" id="veh81" to="-636824321" type="veh_passenger" />
    <trip depart="359.00" departLane="best" from="-48985672" id="veh82" to="31004181#5" type="veh_passenger" />
    <trip depart="363.38" departLane="best" departSpeed="max" from="25631272#0" id="veh83" to="-893972084" type="veh_passenger" />
    <trip depart="367.76" departLane="best" from="-63908781" id="veh84" to="59172069#2" type="veh_passenger" />
    <trip depart="372.13" departLane="best" from="31004181#3" id="veh85" to="4908185" type="veh_passenger" />
    <trip depart="376.51" departLane="best" from="360313819#2" id="veh86" to="-317027067" type="veh_passenger" />
    <trip depart="380.89" departLane="best" from="94838283#4" id="veh87" to="4408238#2" type="veh_passenger" />
    <trip depart="385.27" departLane="best" from="75589201" id="veh88" to="6273600#0" type="veh_passenger" />
    <trip depart="389.65" departLane="best" from="4908204#1" id="veh89" to="-401912432#4" type="veh_passenger" />
    <trip depart="394.02" departLane="best" from="33920769#9" id="veh90" to="-52321641#0" type="veh_passenger" />
    <trip depart="398.40" departLane="best" departSpeed="max" from="18927706#0" id="veh91" to="909777279" type="veh_passenger" />
    <trip depart="402.78" departLane="best" from="-67139161#4" id="veh92" to="432565295#6" type="veh_passenger" />
    <trip depart="407.16" departLane="best" from="317027066#0" id="veh93" to="24769545#1" type="veh_passenger" />
    <trip depart="411.54" departLane="best" from="361409608#0" id="veh94" to="39179549#2" type="veh_passenger" />
    <trip depart="415.91" departLane="best" from="-39179549#0" id="veh95" to="125814491#1" type="veh_passenger" />
    <trip depart="420.29" departLane="best" from="35078325" id="veh96" to="401912432#2" type="veh_passenger" />
    <trip depart="424.67" departLane="best" from="35060878#0" id="veh97" to="48985673#1" type="veh_passenger" />
    <trip depart="429.05" departLane="best" from="-39179549#2" id="veh98" to="67139161#4" type="veh_passenger" />
    <trip depart="433.43" departLane="best" from="3708838#5" id="veh99" to="3789575#0" type="veh_passenger" />
    <trip depart="437.80" departLane="best" from="-5976030" id="veh100" to="-372256221" type="veh_passenger" />
    <trip depart="442.18" departLane="best" from="556040851#1" id="veh101" to="-6273612#4" type="veh_passenger" />
    <trip depart="446.56" departLane="best" from="3708838#5" id="veh102" to="37865098#0" type="veh_passenger" />
    <trip depart="450.94" departLane="best" departSpeed="max" from="25631272#0" id="veh103" to="3708838#5" type="veh_passenger" />
    <trip depart="459.70" departLane="best" from="3789571#4" id="veh105" to="125814738#2" type="veh_passenger" />
    <trip depart="464.07" departLane="best" from="12854626#2" id="veh106" to="401912432#4" type="veh_passenger" />
    <trip depart="468.45" departLane="best" from="-35078314#1" id="veh107" to="317027066#0" type="veh_passenger" />
    <trip depart="472.83" departLane="best" from="-35078314#2" id="veh108" to="-52321641#0" type="veh_passenger" />
    <trip depart="477.21" departLane="best" from="-67139161#4" id="veh109" to="6273612#0" type="veh_passenger" />
    <trip depart="485.96" departLane="best" from="147075690" id="veh111" to="-39179549#2" type="veh_passenger" />
    <trip depart="490.34" departLane="best" from="48985672" id="veh112" to="38587823" type="veh_passenger" />
    <trip depart="494.72" departLane="best" from="3789372#1" id="veh113" to="-125814738#1" type="veh_passenger" />
    <trip depart="499.10" departLane="best" from="4408238#1" id="veh114" to="125814738#1" type="veh_passenger" />
    <trip depart="503.48" departLane="best" from="-372226859#0" id="veh115" to="369445612" type="veh_passenger" />
    <trip depart="507.85" departLane="best" from="-80439756#2" id="veh116" to="372256216#7" type="veh_passenger" />
    <trip depart="512.23" departLane="best" from="39255348#4" id="veh117" to="-52321639#0" type="veh_passenger" />
    <trip depart="516.61" departLane="best" from="3789251#1" id="veh118" to="-64361352" type="veh_passenger" />
    <trip depart="520.99" departLane="best" from="33921278#1" id="veh119" to="529166755" type="veh_passenger" />
    <trip depart="525.37" departLane="best" from="4908199#1" id="veh120" to="-370381577#0" type="veh_passenger" />
    <trip depart="529.74" departLane="best" departSpeed="max" from="25631272#0" id="veh121" to="-8403822#1" type="veh_passenger" />
    <trip depart="534.12" departLane="best" from="-125814461#1" id="veh122" to="41772644#6" type="veh_passenger" />
    <trip depart="538.50" departLane="best" from="3789251#3" id="veh123" to="-64270139#1" type="veh_passenger" />
    <trip depart="542.88" departLane="best" from="401912432#4" id="veh124" to="361409609" type="veh_passenger" />
    <trip depart="547.26" departLane="best" from="27806076#0" id="veh125" to="-125814738#2" type="veh_passenger" />
    <trip depart="551.63" departLane="best" from="-35078316#0" id="veh126" to="52321641#3" type="veh_passenger" />
    <trip depart="556.01" departLane="best" departSpeed="max" from="556390402#0" id="veh127" to="361409608#1" type="veh_passenger" />
    <trip depart="560.39" departLane="best" from="48985673#1" id="veh128" to="3708838#5" type="veh_passenger" />
    <trip depart="564.77" departLane="best" from="-39178091#0" id="veh129" to="-3789251#4" type="veh_passenger" />
    <trip depart="569.15" departLane="best" departSpeed="max" from="4401661#0" id="veh130" to="48985680" type="veh_passenger" />
    <trip depart="573.52" departLane="best" departSpeed="max" from="556390402#0" id="veh131" to="-52321640#2" type="veh_passenger" />
    <trip depart="577.90" departLane="best" from="244844370#1" id="veh132" to="37865098#0" type="veh_passenger" />
    <trip depart="582.28" departLane="best" from="-39179549#0" id="veh133" to="6273610#1" type="veh_passenger" />
    <trip depart="591.04" departLane="best" from="-13871198#0" id="veh135" to="397464856#3" type="veh_passenger" />
    <trip depart="595.41" departLane="best" from="135582842" id="veh136" to="6273610#2" type="veh_passenger" />
    <trip depart="599.79" departLane="best" from="4401661#3" id="veh137" to="4908199#1" type="veh_passenger" />
    <trip depart="608.55" departLane="best" from="4396159#3" id="veh139" to="-372226859#0" type="veh_passenger" />
    <trip depart="612.93" departLane="best" from="-52321642#0" id="veh140" to="4401603#4" type="veh_passenger" />
    <trip depart="621.68" departLane="best" departSpeed="max" from="4401661#0" id="veh142" to="-52321644#1" type="veh_passenger" />
    <trip depart="626.06" departLane="best" from="-135582944" id="veh143" to="-48985673#0" type="veh_passenger" />
    <trip depart="634.82" departLane="best" from="750330944" id="veh145" to="-893972084" type="veh_passenger" />
    <trip depart="639.19" departLane="best" from="3789252#1" id="veh146" to="18927706#4" type="veh_passenger" />
    <trip depart="643.57" departLane="best" from="8403822#0" id="veh147" to="360313819#1" type="veh_passenger" />
    <trip depart="647.95" departLane="best" from="7989950#0" id="veh148" to="-4395994#1" type="veh_passenger" />
    <trip depart="652.33" departLane="best" from="682430068#0" id="veh149" to="-67139161#3" type="veh_passenger" />
    <trip depart="656.71" departLane="best" from="-372256216#0" id="veh150" to="292236197" type="veh_passenger" />
    <trip depart="661.09" departLane="best" from="39994846#1" id="veh151" to="128450677#1" type="veh_passenger" />
    <trip depart="665.46" departLane="best" from="18927706#2" id="veh152" to="3708838#2" type="veh_passenger" />
    <trip depart="669.84" departLane="best" from="-64270137#0" id="veh153" to="38587899#1" type="veh_passenger" />
    <trip depart="674.22" departLane="best" from="-125814461#0" id="veh154" to="6273600#0" type="veh_passenger" />
    <trip depart="678.60" departLane="best" from="35078322#3" id="veh155" to="39179549#3" type="veh_passenger" />
    <trip depart="682.98" departLane="best" from="404268319" id="veh156" to="3789571#4" type="veh_passenger" />
    <trip depart="687.35" departLane="best" from="14401069#2" id="veh157" to="-35078311" type="veh_passenger" />
    <trip depart="691.73" departLane="best" from="3789374#2" id="veh158" to="129774671#1" type="veh_passenger" />
    <trip depart="696.11" departLane="best" from="12854626#0" id="veh159" to="48482641#0" type="veh_passenger" />
    <trip depart="700.49" departLane="best" from="39255348#6" id="veh160" to="125814738#2" type="veh_passenger" />
    <trip depart="704.87" departLane="best" from="242586599" id="veh161" to="125814491#0" type="veh_passenger" />
    <trip depart="709.24" departLane="best" from="-3789251#4" id="veh162" to="244844370#2" type="veh_passenger" />
    <trip depart="713.62" departLane="best" from="6273612#5" id="veh163" to="3789575#1" type="veh_passenger" />
    <trip depart="718.00" departLane="best" departSpeed="max" from="556390402#0" id="veh164" to="37865098#0" type="veh_passenger" />
    <trip depart="722.38" departLane="best" from="127200696" id="veh165" to="361409608#2" type="veh_passenger" />
    <trip depart="726.76" departLane="best" from="27806076#2" id="veh166" to="3708838#4" type="veh_passenger" />
    <trip depart="731.13" departLane="best" from="3789372#2" id="veh167" to="334138114#0" type="veh_passenger" />
    <trip depart="735.51" departLane="best" from="31004181#2" id="veh168" to="-52321641#0" type="veh_passenger" />
    <trip depart="739.89" departLane="best" departSpeed="max" from="4401661#0" id="veh169" to="-41772641" type="veh_passenger" />
    <trip depart="744.27" departLane="best" from="3789251#0" id="veh170" to="135582842" type="veh_passenger" />
    <trip depart="748.65" departLane="best" from="4408238#2" id="veh171" to="401912432#4" type="veh_passenger" />
    <trip depart="753.02" departLane="best" from="3789571#4" id="veh172" to="-52321642#0" type="veh_passenger" />
    <trip depart="757.40" departLane="best" from="-6273612#4" id="veh173" to="33920769#10" type="veh_passenger" />
    <trip depart="761.78" departLane="best" from="52321639#0" id="veh174" to="-35078314#1" type="veh_passenger" />
    <trip depart="766.16" departLane="best" from="-48985674#0" id="veh175" to="3791905#3" type="veh_passenger" />
    <trip depart="770.54" departLane="best" departSpeed="max" from="35059863#0" id="veh176" to="-6273612#3" type="veh_passenger" />
    <trip depart="774.91" departLane="best" from="3789372#3" id="veh177" to="-125814491#1" type="veh_passenger" />
    <trip depart="779.29" departLane="best" from="-372226859#0" id="veh178" to="24807207#1" type="veh_passenger" />
    <trip depart="783.67" departLane="best" from="-4395994#1" id="veh179" to="64361352" type="veh_passenger" />
    <trip depart="788.05" departLane="best" from="35078314#1" id="veh180" to="-317027067" type="veh_passenger" />
    <trip depart="792.43" departLane="best" from="317027066#1" id="veh181" to="4396064#0" type="veh_passenger" />
    <trip depart="796.80" departLane="best" from="3708838#5" id="veh182" to="64270137#1" type="veh_passenger" />
    <trip depart="801.18" departLane="best" from="39255348#5" id="veh183" to="35078314#0" type="veh_passenger" />
    <trip depart="805.56" departLane="best" from="48482641#1" id="veh184" to="361409608#2" type="veh_passenger" />
    <trip depart="809.94" departLane="best" departSpeed="max" from="556390402#0" id="veh185" to="39994849#1" type="veh_passenger" />
    <trip depart="814.32" departLane="best" from="334138114#3" id="veh186" to="-64270137#3" type="veh_passenger" />
    <trip depart="818.69" departLane="best" from="-636824321" id="veh187" to="3789252#1" type="veh_passenger" />
    <trip depart="823.07" departLane="best" from="432565295#6" id="veh188" to="35078321#2" type="veh_passenger" />
    <trip depart="827.45" departLane="best" from="3787679" id="veh189" to="-80439756#2" type="veh_passenger" />
    <trip depart="831.83" departLane="best" from="-35078316#2" id="veh190" to="-94838283#0" type="veh_passenger" />
    <trip depart="836.21" departLane="best" from="-80439756#1" id="veh191" to="128450677#3" type="veh_passenger" />
    <trip depart="840.59" departLane="best" from="-529166755" id="veh192" to="3791905#3" type="veh_passenger" />
    <trip depart="844.96" departLane="best" from="39179549#1" id="veh193" to="-35060878#4" type="veh_passenger" />
    <trip depart="849.34" departLane="best" from="244844370#2" id="veh194" to="360319695#0" type="veh_passenger" />
    <trip depart="853.72" departLane="best" departSpeed="max" from="25631272#0" id="veh195" to="-52321639#3" type="veh_passenger" />
    <trip depart="858.10" departLane="best" departSpeed="max" from="25631272#0" id="veh196" to="529166755" type="veh_passenger" />
    <trip depart="862.48" departLane="best" from="3708578#4" id="veh197" to="3791905#3" type="veh_passenger" />
    <trip depart="866.85" departLane="best" from="52321640#2" id="veh198" to="41772643" type="veh_passenger" />
    <trip depart="871.23" departLane="best" departSpeed="max" from="18927706#0" id="veh199" to="-125814491#1" type="veh_passenger" />
    <trip depart="879.99" departLane="best" departSpeed="max" from="25631272#0" id="veh201" to="401912432#2" type="veh_passenger" />
    <trip depart="884.37" departLane="best" from="360313819#0" id="veh202" to="372256216#6" type="veh_passenger" />
    <trip depart="888.74" departLane="best" from="13871198#0" id="veh203" to="3789578" type="veh_passenger" />
    <trip depart="893.12" departLane="best" from="244844370#0" id="veh204" to="-401912432#4" type="veh_passenger" />
    <trip depart="897.50" departLane="best" departSpeed="max" from="317127417" id="veh205" to="-3789251#4" type="veh_passenger" />
    <trip depart="901.88" departLane="best" from="23086918#0" id="veh206" to="3708465#3" type="veh_passenger" />
    <trip depart="906.26" departLane="best" from="-3789252#3" id="veh207" to="317027067" type="veh_passenger" />
    <trip depart="910.63" departLane="best" from="-317027067" id="veh208" to="14331345" type="veh_passenger" />
    <trip depart="919.39" departLane="best" from="432565295#2" id="veh210" to="14331345" type="veh_passenger" />
    <trip depart="923.77" departLane="best" from="-64270035#0" id="veh211" to="-35078322#2" type="veh_passenger" />
    <trip depart="928.15" departLane="best" from="-135582840#0" id="veh212" to="360319693" type="veh_passenger" />
    <trip depart="932.52" departLane="best" from="94838283#4" id="veh213" to="13871411" type="veh_passenger" />
    <trip depart="936.90" departLane="best" from="3789368#5" id="veh214" to="432565295#4" type="veh_passenger" />
    <trip depart="941.28" departLane="best" from="3789372#0" id="veh215" to="40641511" type="veh_passenger" />
    <trip depart="945.66" departLane="best" from="-135582840#1" id="veh216" to="-39178107#1" type="veh_passenger" />
    <trip depart="950.04" departLane="best" from="361409609" id="veh217" to="-52321641#3" type="veh_passenger" />
    <trip depart="954.41" departLane="best" from="39178091#0" id="veh218" to="41772644#0" type="veh_passenger" />
    <trip depart="958.79" departLane="best" from="-41772639#1" id="veh219" to="37721990" type="veh_passenger" />
    <trip depart="963.17" departLane="best" from="41772641" id="veh220" to="-372256216#4" type="veh_passenger" />
    <trip depart="967.55" departLane="best" from="4408238#2" id="veh221" to="750249501" type="veh_passenger" />
    <trip depart="980.68" departLane="best" from="39255348#2" id="veh224" to="-35078316#1" type="veh_passenger" />
    <trip depart="985.06" departLane="best" from="384330741" id="veh225" to="3789247#1" type="veh_passenger" />
    <trip depart="989.44" departLane="best" from="-3708465#5" id="veh226" to="42638928" type="veh_passenger" />
    <trip depart="993.82" departLane="best" from="-3787679" id="veh227" to="893972083" type="veh_passenger" />
    <trip depart="998.19" departLane="best" from="4396159#1" id="veh228" to="13871260" type="veh_passenger" />
    <trip depart="1002.57" departLane="best" from="27806076#1" id="veh229" to="14327272#0" type="veh_passenger" />
    <trip depart="1006.95" departLane="best" from="35060878#2" id="veh230" to="13871230#0" type="veh_passenger" />
    <trip depart="1011.33" departLane="best" from="52321639#0" id="veh231" to="4401781#1" type="veh_passenger" />
    <trip depart="1015.71" departLane="best" from="-3708643" id="veh232" to="67139161#4" type="veh_passenger" />
    <trip depart="1020.09" departLane="best" from="3789251#2" id="veh233" to="4401806" type="veh_passenger" />
    <trip depart="1024.46" departLane="best" from="39179549#2" id="veh234" to="292236197" type="veh_passenger" />
    <trip depart="1028.84" departLane="best" from="39994849#2" id="veh235" to="750249502" type="veh_passenger" />
    <trip depart="1033.22" departLane="best" from="-7989950#2" id="veh236" to="4396159#1" type="veh_passenger" />
    <trip depart="1037.60" departLane="best" from="35078322#3" id="veh237" to="33969753#0" type="veh_passenger" />
    <trip depart="1041.98" departLane="best" from="-7989950#0" id="veh238" to="48985672" type="veh_passenger" />
    <trip depart="1046.35" departLane="best" from="48482641#1" id="veh239" to="-35078325" type="veh_passenger" />
    <trip depart="1050.73" departLane="best" from="52822147#0" id="veh240" to="-6273612#2" type="veh_passenger" />
    <trip depart="1055.11" departLane="best" departSpeed="max" from="317127417" id="veh241" to="37721991#0" type="veh_passenger" />
    <trip depart="1059.49" departLane="best" departSpeed="max" from="18927706#0" id="veh242" to="-13871230#1" type="veh_passenger" />
    <trip depart="1063.87" departLane="best" from="-52321641#0" id="veh243" to="4395982#1" type="veh_passenger" />
    <trip depart="1068.24" departLane="best" from="13871230#1" id="veh244" to="52321641#1" type="veh_passenger" />
    <trip depart="1072.62" departLane="best" from="39178107#0" id="veh245" to="-8403822#0" type="veh_passenger" />
    <trip depart="1077.00" departLane="best" from="-127200696" id="veh246" to="64270137#0" type="veh_passenger" />
    <trip depart="1081.38" departLane="best" from="-35078325" id="veh247" to="39179549#3" type="veh_passenger" />
    <trip depart="1085.76" departLane="best" from="33921278#1" id="veh248" to="40641511" type="veh_passenger" />
    <trip depart="1090.13" departLane="best" from="33969753#2" id="veh249" to="43538582" type="veh_passenger" />