<routes xmlns:xsi="http://www.w3.org/2001/XMLSchema-instance" xsi:noNamespaceSchemaLocation="http://sumo.dlr.de/xsd/routes_file.xsd">
    <vType id="truck_truck" vClass="truck">
        <param key="has.ssm.device" value="true" />
        <param key="device.ssm.file" value="Results/HDV-0.85_CAV2-0.075_CAV4-0.075/ssm_truck.xml" />
        <param key="device.ssm.probability" value="1" />
        <param key="device.ssm.deterministic" value="True" />
        <param key="device.ssm.measures" value="TTC PET" />
        <param key="device.ssm.thresholds" value="1.5 1" />
        <param key="device.ssm.range" value="20" />
        <param key="device.ssm.extratime" value="0.5" />
        <param key="device.ssm.trajectories" value="False" />
        <param key="device.ssm.geo" value="True" />
        <param key="has.tripinfo.device" value="true" />
        <param key="device.tripinfo.probability" value="true" />
    </vType>
    <trip depart="0.00" departLane="best" from="4401781#2" id="truck0" to="-125814491#1" type="truck_truck" />
    <trip depart="13.13" departLane="best" from="67139161#3" id="truck2" to="128450677#3" type="truck_truck" />
    <trip depart="19.70" departLane="best" from="4908199#0" id="truck3" to="372245388#1" type="truck_truck" />
    <trip depart="26.27" departLane="best" from="35078311" id="truck4" to="80433528" type="truck_truck" />
    <trip depart="32.84" departLane="best" from="52321640#2" id="truck5" to="3708463#2" type="truck_truck" />
    <trip depart="39.40" departLane="best" departSpeed="max" from="14401069#0" id="truck6" to="-4908185" type="truck_truck" />
    <trip depart="45.97" departLane="best" from="-39179549#1" id="truck7" to="14327271" type="truck_truck" />
    <trip depart="52.54" departLane="best" from="94838278#0" id="truck8" to="3789251#2" type="truck_truck" />
    <trip depart="65.67" departLane="best" from="52321644#2" id="truck10" to="125814738#2" type="truck_truck" />
    <trip depart="72.24" departLane="best" from="585819383#1" id="truck11" to="31004181#4" type="truck_truck" />
    <trip depart="78.80" departLane="best" from="370381577#0" id="truck12" to="52822147#1" type="truck_truck" />
    <trip depart="85.37" departLane="best" departSpeed="max" from="18927706#0" id="truck13" to="-52321640#2" type="truck_truck" />
    <trip depart="91.94" departLane="best" from="94838283#3" id="truck14" to="35060878#1" type="truck_truck" />
    <trip depart="98.51" departLane="best" from="-35078322#3" id="truck15" to="-30988141" type="truck_truck" />
    <trip depart="105.07" departLane="best" from="-3708465#4" id="truck16" to="37865098#0" type="truck_truck" />
    <trip depart="111.64" departLane="best" from="-334138114#5" id="truck17" to="14327272#0" type="truck_truck" />
    <trip depart="118.21" departLane="best" from="94838283#2" id="truck18" to="35078315#1" type="truck_truck" />
    <trip depart="124.77" departLane="best" from="31004181#0" id="truck19" to="64270141" type="truck_truck" />
    <trip depart="131.34" departLane="best" from="33920769#8" id="truck20" to="-41772641" type="truck_truck" />
    <trip depart="137.91" departLane="best" from="-94838283#4" id="truck21" to="3789251#1" type="truck_truck" />
    <trip depart="144.48" departLane="best" from="4395982#1" id="truck22" to="35078316#0" type="truck_truck" />
    <trip depart="151.04" departLane="best" from="-125813720" id="truck23" to="128450676#3" type="truck_truck" />
    <trip depart="164.18" departLane="best" from="94838283#1" id="truck25" to="3789368#1" type="truck_truck" />
    <trip depart="170.74" departLane="best" from="129212233#1" id="truck26" to="3708643" type="truck_truck" />
    <trip depart="177.31" departLane="best" from="-35060879#0" id="truck27" to="3789247#0" type="truck_truck" />
    <trip depart="183.88" departLane="best" from="-59172069#2" id="truck28" to="3789374#0" type="truck_truck" />
    <trip depart="190.45" departLane="best" from="4401781#0" id="truck29" to="-4396064#1" type="truck_truck" />
    <trip depart="197.01" departLane="best" from="-354380392#0" id="truck30" to="244844370#2" type="truck_truck" />
    <trip depart="203.58" departLane="best" from="397464856#1" id="truck31" to="3789571#0" type="truck_truck" />
    <trip depart="210.15" departLane="best" from="893972083" id="truck32" to="-354380392#0" type="truck_truck" />
    <trip depart="216.71" departLane="best" from="-4396159#1" id="truck33" to="30988140" type="truck_truck" />
    <trip depart="223.28" departLane="best" from="27806076#1" id="truck34" to="4908199#1" type="truck_truck" />
    <trip depart="236.41" departLane="best" from="7989950#0" id="truck36" to="6273610#3" type="truck_truck" />
    <trip depart="242.98" departLane="best" from="334138114#0" id="truck37" to="-52321639#2" type="truck_truck" />
    <trip depart="249.55" departLane="best" from="18927706#1" id="truck38" to="-334138114#1" type="truck_truck" />
    <trip depart="256.12" departLane="best" from="14401069#4" id="truck39" to="909777279" type="truck_truck" />
    <trip depart="262.68" departLane="best" from="67139161#3" id="truck40" to="94838283#1" type="truck_truck" />
    <trip depart="269.25" departLane="best" from="35078321#2" id="truck41" to="39255345#0" type="truck_truck" />
    <trip depart="275.82" departLane="best" from="75589201" id="truck42" to="3708465#3" type="truck_truck" />
    <trip depart="288.95" departLane="best" from="3708465#4" id="truck44" to="37722081#0" type="truck_truck" />
    <trip depart="295.52" departLane="best" from="-59172069#2" id="truck45" to="14401069#8" type="truck_truck" />
    <trip depart="302.09" departLane="best" from="3789372#7" id="truck46" to="-94838283#2" type="truck_truck" />
    <trip depart="315.22" departLane="best" from="-35060879#1" id="truck48" to="31004181#3" type="truck_truck" />
    <trip depart="321.79" departLane="best" from="-35060879#1" id="truck49" to="-52321639#1" type="truck_truck" />
    <trip depart="334.92" departLane="best" from="3789368#1" id="truck51" to="-125814598" type="truck_truck" />
    <trip depart="341.49" departLane="best" from="4408221" id="truck52" to="-94838283#1" type="truck_truck" />
    <trip depart="348.05" departLane="best" from="3789372#1" id="truck53" to="63908781" type="truck_truck" />
    <trip depart="354.62" departLane="best" from="-3789251#4" id="truck54" to="-3708578#4" type="truck_truck" />
    <trip depart="361.19" departLane="best" from="-67139161#3" id="truck55" to="372256216#0" type="truck_truck" />
    <trip depart="367.76" departLane="best" from="3787679" id="truck56" to="-64270137#0" type="truck_truck" />
    <trip depart="374.32" departLane="best" from="334138114#2" id="truck57" to="556040851#1" type="truck_truck" />
    <trip depart="387.46" departLane="best" from="4401603#4" id="truck59" to="4908199#0" type="truck_truck" />
    <trip depart="394.02" departLane="best" departSpeed="max" from="556390402#0" id="truck60" to="-4908185" type="truck_truck" />
    <trip depart="400.59" departLane="best" from="4395994#0" id="truck61" to="52321642#1" type="truck_truck" />
    <trip depart="407.16" departLane="best" from="-39178091#0" id="truck62" to="6273612#2" type="truck_truck" />
    <trip depart="413.73" departLane="best" from="4401781#3" id="truck63" to="52321641#5" type="truck_truck" />
    <trip depart="420.29" departLane="best" departSpeed="max" from="129212233#0" id="truck64" to="6273612#2" type="truck_truck" />
    <trip depart="426.86" departLane="best" departSpeed="max" from="4401661#0" id="truck65" to="4908204#1" type="truck_truck" />
    <trip depart="433.43" departLane="best" from="4401781#3" id="truck66" to="-64270137#2" type="truck_truck" />
    <trip depart="439.99" departLane="best" from="4396159#1" id="truck67" to="-3708465#0" type="truck_truck" />
    <trip depart="446.56" departLane="best" from="52321642#1" id="truck68" to="4908185" type="truck_truck" />
    <trip depart="459.70" departLane="best" from="4401603#4" id="truck70" to="-52321641#5" type="truck_truck" />
    <trip depart="466.26" departLane="best" from="750330957" id="truck71" to="-75589201" type="truck_truck" />
    <trip depart="472.83" departLane="best" from="636824322#1" id="truck72" to="-3708578#4" type="truck_truck" />
    <trip depart="479.40" departLane="best" from="3708838#5" id="truck73" to="35060878#2" type="truck_truck" />
    <trip depart="485.96" departLane="best" from="147075690" id="truck74" to="3708463#2" type="truck_truck" />
    <trip depart="492.53" departLane="best" from="-125814461#0" id="truck75" to="6273610#3" type="truck_truck" />
    <trip depart="499.10" departLane="best" from="3789372#2" id="truck76" to="128450677#3" type="truck_truck" />
    <trip depart="505.66" departLane="best" from="127546529#0" id="truck77" to="48985672" type="truck_truck" />
    <trip depart="512.23" departLane="best" from="39255348#1" id="truck78" to="-94838283#2" type="truck_truck" />
    <trip depart="518.80" departLane="best" from="125814738#1" id="truck79" to="18927706#3" type="truck_truck" />
    <trip depart="525.37" departLane="best" from="18927706#2" id="truck80" to="-94838278#3" type="truck_truck" />
    <trip depart="531.93" departLane="best" from="125814461#0" id="truck81" to="35078322#3" type="truck_truck" />
    <trip depart="538.50" departLane="best" from="-125813720" id="truck82" to="-8403822#0" type="truck_truck" />
    <trip depart="545.07" departLane="best" from="27806076#1" id="truck83" to="-52321639#2" type="truck_truck" />
    <trip depart="551.63" departLane="best" from="317027066#2" id="truck84" to="529166755" type="truck_truck" />
    <trip depart="558.20" departLane="best" from="4401603#4" id="truck85" to="-39255350" type="truck_truck" />
    <trip depart="564.77" departLane="best" from="37722081#1" id="truck86" to="128450677#3" type="truck_truck" />
    <trip depart="571.34" departLane="best" from="4908199#1" id="truck87" to="-35060879#0" type="truck_truck" />
    <trip depart="577.90" departLane="best" from="-48859797#0" id="truck88" to="3791905#3" type="truck_truck" />
    <trip depart="584.47" departLane="best" from="33920769#1" id="truck89" to="-6273600#0" type="truck_truck" />
    <trip depart="591.04" departLane="best" from="3789368#2" id="truck90" to="-125814491#0" type="truck_truck" />
    <trip depart="597.60" departLane="best" from="-41772641" id="truck91" to="67139161#4" type="truck_truck" />
    <trip depart="604.17" departLane="best" from="31004181#2" id="truck92" to="4396064#0" type="truck_truck" />
    <trip depart="610.74" departLane="best" from="3789372#4" id="truck93" to="913681361" type="truck_truck" />
    <trip depart="617.30" departLane="best" from="3708465#5" id="truck94" to="64270139#0" type="truck_truck" />
    <trip depart="630.44" departLane="best" from="48482641#0" id="truck96" to="35078322#3" type="truck_truck" />
    <trip depart="637.01" departLane="best" departSpeed="max" from="556390402#0" id="truck97" to="39994849#1" type="truck_truck" />
    <trip depart="643.57" departLane="best" from="317027067" id="truck98" to="-63908781" type="truck_truck" />
    <trip depart="650.14" departLane="best" from="432565295#1" id="truck99" to="35060881" type="truck_truck" />
    <trip depart="656.71" departLane="best" from="372256221" id="truck100" to="-64361352" type="truck_truck" />
    <trip depart="663.27" departLane="best" from="-67139161#3" id="truck101" to="128450676#0" type="truck_truck" />
    <trip depart="669.84" departLane="best" from="-52321644#2" id="truck102" to="3791905#3" type="truck_truck" />
    <trip depart="676.41" departLane="best" from="242586600" id="truck103" to="556040851#1" type="truck_truck" />
    <trip depart="682.98" departLane="best" from="370381577#0" id="truck104" to="3791905#3" type="truck_truck" />
    <trip depart="689.54" departLane="best" from="14401069#6" id="truck105" to="-125814491#1" type="truck_truck" />
    <trip depart="696.11" departLane="best" from="13871198#1" id="truck106" to="404268319" type="truck_truck" />
    <trip depart="702.68" departLane="best" departSpeed="max" from="25631272#0" id="truck107" to="-13871198#1" type="truck_truck" />
    <trip depart="709.24" departLane="best" departSpeed="max" from="129212233#0" id="truck108" to="3789571#4" type="truck_truck" />
    <trip depart="715.81" departLane="best" from="18927706#4" id="truck109" to="-39179549#1" type="truck_truck" />
    <trip depart="722.38" departLane="best" departSpeed="max" from="18927706#0" id="truck110" to="361409608#1" type="truck_truck" />
    <trip depart="728.94" departLane="best" from="-3789251#5" id="truck111" to="31004181#7" type="truck_truck" />
    <trip depart="735.51" departLane="best" from="-317027066#0" id="truck112" to="14327271" type="truck_truck" />
    <trip depart="742.08" departLane="best" from="-52321639#2" id="truck113" to="128450677#1" type="truck_truck" />
    <trip depart="748.65" departLane="best" from="-636824321" id="truck114" to="-35078314#2" type="truck_truck" />
    <trip depart="761.78" departLane="best" from="94838283#4" id="truck116" to="135582840#3" type="truck_truck" />
    <trip depart="774.91" departLane="best" from="401912432#4" id="truck118" to="-3708578#3" type="truck_truck" />
    <trip depart="781.48" departLane="best" from="4408238#1" id="truck119" to="750330944" type="truck_truck" />
    <trip depart="788.05" departLane="best" from="-3708465#3" id="truck120" to="-135582840#3" type="truck_truck" />
    <trip depart="794.62" departLane="best" from="125863788" id="truck121" to="3789571#2" type="truck_truck" />
    <trip depart="801.18" departLane="best" from="3789578" id="truck122" to="37865098#0" type="truck_truck" />
    <trip depart="807.75" departLane="best" from="-3708463#0" id="truck123" to="41772644#6" type="truck_truck" />
    <trip depart="814.32" departLane="best" from="4908199#2" id="truck124" to="372245387#1" type="truck_truck" />
    <trip depart="820.88" departLane="best" from="24807207#0" id="truck125" to="13907386" type="truck_truck" />
    <trip depart="827.45" departLane="best" from="-3708463#2" id="truck126" to="682430068#1" type="truck_truck" />
    <trip depart="834.02" departLane="best" from="39994845" id="truck127" to="750330944" type="truck_truck" />
    <trip depart="840.59" departLane="best" from="-64361352" id="truck128" to="4401603#0" type="truck_truck" />
    <trip depart="847.15" departLane="best" from="35078314#1" id="truck129" to="334138114#4" type="truck_truck" />
    <trip depart="853.72" departLane="best" departSpeed="max" from="25631272#0" id="truck130" to="39255350" type="truck_truck" />
    <trip depart="860.29" departLane="best" from="48482641#0" id="truck131" to="-35078316#2" type="truck_truck" />
    <trip depart="866.85" departLane="best" from="14401069#4" id="truck132" to="-13871198#1" type="truck_truck" />
    <trip depart="879.99" departLane="best" from="38587899#1" id="truck134" to="-67139161#3" type="truck_truck" />
    <trip depart="886.55" departLane="best" from="-125814738#2" id="truck135" to="64270137#2" type="truck_truck" />
    <trip depart="893.12" departLane="best" from="334138114#2" id="truck136" to="40641511" type="truck_truck" />
    <trip depart="899.69" departLane="best" from="334138114#4" id="truck137" to="43538582" type="truck_truck" />
    <trip depart="906.26" departLane="best" from="3791905#0" id="truck138" to="125814461#0" type="truck_truck" />
    <trip depart="912.82" departLane="best" from="361409609" id="truck139" to="317027066#2" type="truck_truck" />
    <trip depart="919.39" departLane="best" from="401912432#3" id="truck140" to="128450677#3" type="truck_truck" />
    <trip depart="925.96" departLane="best" from="39178091#0" id="truck141" to="-64270139#1" type="truck_truck" />
    <trip depart="932.52" departLane="best" from="35078311" id="truck142" to="41772639#1" type="truck_truck" />
    <trip depart="939.09" departLane="best" departSpeed="max" from="317127417" id="truck143" to="39255348#2" type="truck_truck" />
    <trip depart="945.66" departLane="best" from="80439756#2" id="truck144" to="35078314#1" type="truck_truck" />
    <trip depart="952.23" departLane="best" from="-48859797#0" id="truck145" to="-52321641#5" type="truck_truck" />
    <trip depart="958.79" departLane="best" from="35060881" id="truck146" to="-64361352" type="truck_truck" />
    <trip depart="965.36" departLane="best" from="52321642#1" id="truck147" to="3708463#0" type="truck_truck" />
    <trip depart="978.49" departLane="best" from="35078322#4" id="truck149" to="125813720" type="truck_truck" />
    <trip depart="985.06" departLane="best" from="94838283#0" id="truck150" to="-372226859#0" type="truck_truck" />
    <trip depart="991.63" departLane="best" from="4401603#0" id="truck151" to="-52321641#4" type="truck_truck" />
    <trip depart="998.19" departLane="best" from="35060878#0" id="truck152" to="30988141" type="truck_truck" />
    <trip depart="1004.76" departLane="best" from="27806076#1" id="truck153" to="4908199#0" type="truck_truck" />
    <trip depart="1011.33" departLane="best" from="3789368#6" id="truck154" to="-39178091#0" type="truck_truck" />
    <trip depart="1017.90" departLane="best" from="3708465#4" id="truck155" to="-909777279" type="truck_truck" />
    <trip depart="1024.46" departLane="best" from="-52321644#2" id="truck156" to="39178091#1" type="truck_truck" />
    <trip depart="1031.03" departLane="best" from="4396159#1" id="truck157" to="37865098#0" type="truck_truck" />
    <trip depart="1037.60" departLane="best" from="474590054" id="truck158" to="-35060878#4" type="truck_truck" />
    <trip depart="1044.16" departLane="best" from="-94838278#0" id="truck159" to="-372256216#4" type="truck_truck" />
    <trip depart="1050.73" departLane="best" from="64270035#0" id="truck160" to="33969753#2" type="truck_truck" />
    <trip depart="1063.87" departLane="best" from="48985672" id="truck162" to="3708463#1" type="truck_truck" />
    <trip depart="1070.43" departLane="best" from="64270139#0" id="truck163" to="94838283#4" type="truck_truck" />
    <trip depart="1077.00" departLane="best" from="334138114#5" id="truck164" to="-35078322#2" type="truck_truck" />
    <trip depart="1083.57" departLane="best" from="135582944" id="truck165" to="128450677#3" type="truck_truck" />
    <trip depart="1090.13" departLane="best" from="-94838278#0" id="truck166" to="64270137#0" type="truck_truck" />
    <trip depart="1096.70" departLane="best" from="4401787" id="truck167" to="35078322#4" type="truck_truck" />
    <trip depart="1103.27" departLane="best" from="913681361" id="truck168" to="3789372#1" type="truck_truck" />
    <trip depart="1109.84" departLane="best" from="-4396064#1" id="truck169" to="13871250" type="truck_truck" />
    <trip depart="1116.40" departLane="best" from="41772643" id="truck170" to="37865098#0" type="truck_truck" />
    <trip depart="1122.97" departLane="best" from="-372256216#3" id="truck171" to="80433528" type="truck_truck" />
    <trip depart="1129.54" departLane="best" from="3716925" id="truck172" to="-563891693" type="truck_truck" />
    <trip depart="1136.10" departLane="best" from="-39178107#1" id="truck173" to="35078324#0" type="truck_truck" />
    <trip depart="1142.67" departLane="best" from="94838278#3" id="truck174" to="585819383#1" type="truck_truck" />
    <trip depart="1149.24" departLane="best" from="48482641#1" id="truck175" to="33921278#1" type="truck_truck" />
    <trip depart="1155.80" departLane="best" from="-67139161#4" id="truck176" to="445383138" type="truck_truck" />
    <trip depart="1162.37" departLane="best" from="8403822#1" id="truck177" to="-6273600#0" type="truck_truck" />
    <trip depart="1168.94" departLane="best" from="35078320" id="truck178" to="14327272#0" type="truck_truck" />
    <trip depart="1175.51" departLane="best" from="-7989950#0" id="truck179" to="43538582" type="truck_truck" />
    <trip depart="1182.07" departLane="best" from="-8403822#0" id="truck180" to="-94838283#1" type="truck_truck" />
    <trip depart="1188.64" departLane="best" from="334138114#3" id="truck181" to="-3789372#3" type="truck_truck" />
    <trip depart="1195.21" departLane="best" from="35078314#1" id="truck182" to="129774671#0" type="truck_truck" />
    <trip depart="1201.77" departLane="best" from="-4396159#0" id="truck183" to="3791905#3" type="truck_truck" />
    <trip depart="1208.34" departLane="best" from="4395970" id="truck184" to="-292662748" type="truck_truck" />
    <trip depart="1214.91" departLane="best" from="401912432#2" id="truck185" to="39178091#0" type="truck_truck" />
    <trip depart="1221.48" departLane="best" from="3708463#2" id="truck186" to="52321639#3" type="truck_truck" />
    <trip depart="1228.04" departLane="best" from="52321644#0" id="truck187" to="27806076#0" type="truck_truck" />
    <trip depart="1234.61" departLane="best" from="35060878#3" id="truck188" to="31004181#2" type="truck_truck" />
    <trip depart="1241.18" departLane="best" from="39255348#3" id="truck189" to="18927706#4" type="truck_truck" />
    <trip depart="1247.74" departLane="best" from="31028274" id="truck190" to="7989950#0" type="truck_truck" />
    <trip depart="1254.31" departLane="best" from="4908204#1" id="truck191" to="4908185" type="truck_truck" />
    <trip depart="1260.88" departLane="best" from="14401069#6" id="truck192" to="127200696" type="truck_truck" />
    <trip depart="1267.44" departLane="best" from="52321642#1" id="truck193" to="-14331347" type="truck_truck" />
    <trip depart="1274.01" departLane="best" from="-35060878#3" id="truck194" to="3789247#0" type="truck_truck" />
    <trip depart="1287.15" departLane="best" from="-360319695#0" id="truck196" to="3789250#0" type="truck_truck" />
    <trip depart="1293.71" departLane="best" from="52321642#1" id="truck197" to="27806076#2" type="truck_truck" />
    <trip depart="1300.28" departLane="best" from="-30988141" id="truck198" to="4395982#0" type="truck_truck" />
    <trip depart="1306.85" departLane="best" from="-6273600#0" id="truck199" to="585819383#1" type="truck_truck" />
    <trip depart="1313.41" departLane="best" from="-3789372#1" id="truck200" to="31004181#5" type="truck_truck" />
    <trip depart="1319.98" departLane="best" from="-125814738#1" id="truck201" to="4396159#0" type="truck_truck" />
    <trip depart="1326.55" departLane="best" from="-39178107#0" id="truck202" to="27806076#1" type="truck_truck" />
    <trip depart="1333.12" departLane="best" from="135582840#3" id="truck203" to="3708643" type="truck_truck" />
    <trip depart="1339.68" departLane="best" from="-6273612#5" id="truck204" to="48859797#0" type="truck_truck" />
    <trip depart="1346.25" departLane="best" from="-48985674#0" id="truck205" to="14327272#0" type="truck_truck" />
    <trip depart="1352.82" departLane="best" departSpeed="max" from="317127417" id="truck206" to="-52324406" type="truck_truck" />
    <trip depart="1359.38" departLane="best" from="-75589201" id="truck207" to="361409608#3" type="truck_truck" />
    <trip depart="1365.95" departLane="best" from="-310196058" id="truck208" to="372256216#1" type="truck_truck" />
    <trip depart="1372.52" departLane="best" from="-893972084" id="truck209" to="4395994#0" type="truck_truck" />
    <trip depart="1379.09" departLane="best" from="3789247#0" id="truck210" to="37722081#1" type="truck_truck" />
    <trip depart="1392.22" departLane="best" from="27806076#0" id="truck212" to="3708465#3" type="truck_truck" />
    <trip depart="1398.79" departLane="best" from="-94838283#1" id="truck213" to="39994849#3" type="truck_truck" />
    <trip depart="1405.35" departLane="best" from="35078314#1" id="truck214" to="7989950#2" type="truck_truck" />
    <trip depart="1411.92" departLane="best" from="35060879#1" id="truck215" to="585819383#1" type="truck_truck" />
    <trip depart="1425.05" departLane="best" from="129212233#1" id="truck217" to="-3708578#4" type="truck_truck" />
    <trip depart="1431.62" departLane="best" from="750249501" id="truck218" to="-3789252#2" type="truck_truck" />
    <trip depart="1438.19" departLane="best" from="39255348#4" id="truck219" to="8403822#0" type="truck_truck" />
    <trip depart="1444.76" departLane="best" from="750330957" id="truck220" to="4396159#0" type="truck_truck" />
    <trip depart="1457.89" departLane="best" from="3789374#0" id="truck222" to="3708578#3" type="truck_truck" />
    <trip depart="1471.02" departLane="best" from="-3708465#3" id="truck224" to="-52321644#2" type="truck_truck" />
    <trip depart="1477.59" departLane="best" from="-52321641#3" id="truck225" to="-334138114#5" type="truck_truck" />
    <trip depart="1497.29" departLane="best" from="125814491#0" id="truck228" to="33920769#7" type="truck_truck" />
    <trip depart="1503.86" departLane="best" from="-354380392#0" id="truck229" to="52321644#1" type="truck_truck" />
    <trip depart="1510.43" departLane="best" from="233674059" id="truck230" to="-360319695#0" type="truck_truck" />
    <trip depart="1523.56" departLane="best" from="-370381577#0" id="truck232" to="3789578" type="truck_truck" />
    <trip depart="1530.13" departLane="best" from="13871252#0" id="truck233" to="147075690" type="truck_truck" />
    <trip depart="1536.69" departLane="best" from="4396159#1" id="truck234" to="-6273600#0" type="truck_truck" />
    <trip depart="1543.26" departLane="best" from="-4908185" id="truck235" to="-52321639#3" type="truck_truck" />
    <trip depart="1549.83" departLane="best" from="52321641#5" id="truck236" to="128450677#2" type="truck_truck" />
    <trip depart="1556.40" departLane="best" from="-125814461#1" id="truck237" to="4908185" type="truck_truck" />
    <trip depart="1569.53" departLane="best" from="-41772639#1" id="truck239" to="-317027066#1" type="truck_truck" />
    <trip depart="1576.10" departLane="best" from="4395982#0" id="truck240" to="35060878#4" type="truck_truck" />
    <trip depart="1589.23" departLane="best" from="35060878#0" id="truck242" to="31004181#3" type="truck_truck" />
    <trip depart="1595.80" departLane="best" from="750249502" id="truck243" to="-334138114#3" type="truck_truck" />
    <trip depart="1602.37" departLane="best" departSpeed="max" from="317127417" id="truck244" to="147077493#2" type="truck_truck" />
    <trip depart="1608.93" departLane="best" from="3789572" id="truck245" to="33920769#2" type="truck_truck" />
    <trip depart="1615.50" departLane="best" from="585819381#0" id="truck246" to="-35060879#1" type="truck_truck" />
    <trip depart="1622.07" departLane="best" from="-35060878#1" id="truck247" to="-64361352" type="truck_truck" />
    <trip depart="1628.63" departLane="best" from="12854626#0" id="truck248" to="94838283#1" type="truck_truck" />
    <trip depart="1635.20" departLane="best" from="35060879#1" id="truck249" to="31004181#0" type="truck_truck" />
    <trip depart="1641.77" departLane="best" from="3708838#4" id="truck250" to="-360319695#0" type="truck_truck" />
    <trip depart="1648.34" departLane="best" from="30988141" id="truck251" to="-52321642#0" type="truck_truck" />
    <trip depart="1654.90" departLane="best" from="129212233#1" id="truck252" to="31004181#0" type="truck_truck" />
    <trip depart="1661.47" departLane="best" departSpeed="max" from="14401069#0" id="truck253" to="-3789372#6" type="truck_truck" />
    <trip depart="1668.04" departLane="best" from="48482641#0" id="truck254" to="-35078322#4" type="truck_truck" />
    <trip depart="1674.60" departLane="best" from="-354380392#0" id="truck255" to="39994846#0" type="truck_truck" />
    <trip depart="1681.17" departLane="best" from="3708463#0" id="truck256" to="360319695#0" type="truck_truck" />
    <trip depart="1687.74" departLane="best" from="39255348#2" id="truck257" to="75589201" type="truck_truck" />
    <trip depart="1694.30" departLane="best" from="3708643" id="truck258" to="135582842" type="truck_truck" />
    <trip depart="1700.87" departLane="best" from="361409608#2" id="truck259" to="-52321639#1" type="truck_truck" />
    <trip depart="1707.44" departLane="best" from="6273612#0" id="truck260" to="4408221" type="truck_truck" />
    <trip depart="1714.01" departLane="best" from="-64270139#1" id="truck261" to="-41772643" type="truck_truck" />
    <trip depart="1727.14" departLane="best" from="52321641#5" id="truck263" to="361409608#3" type="truck_truck" />
    <trip depart="1733.71" departLane="best" from="18927706#1" id="truck264" to="-3789252#3" type="truck_truck" />
    <trip depart="1740.27" departLane="best" from="37722081#1" id="truck265" to="-13871230#0" type="truck_truck" />
    <trip depart="1746.84" departLane="best" from="4395970" id="truck266" to="361409609" type="truck_truck" />
    <trip depart="1753.41" departLane="best" from="3789374#1" id="truck267" to="-64270139#1" type="truck_truck" />
    <trip depart="1759.98" departLane="best" from="27806076#0" id="truck268" to="-64270141" type="truck_truck" />
    <trip depart="1766.54" departLane="best" from="3789571#0" id="truck269" to="33920769#0" type="truck_truck" />
    <trip depart="1773.11" departLane="best" from="-63908781" id="truck270" to="128450677#2" type="truck_truck" />
    <trip depart="1779.68" departLane="best" from="-125814598" id="truck271" to="39994849#3" type="truck_truck" />
    <trip depart="1786.24" departLane="best" from="39178091#1" id="truck272" to="33969753#2" type="truck_truck" />
    <trip depart="1792.81" departLane="best" from="48859797#0" id="truck273" to="4396159#1" type="truck_truck" />
    <trip depart="1799.38" departLane="best" from="-35060879#1" id="truck274" to="4908199#1" type="truck_truck" />
    <trip depart="1805.94" departLane="best" from="361409608#0" id="truck275" to="3708463#0" type="truck_truck" />
    <trip depart="1812.51" departLane="best" from="39179549#0" id="truck276" to="23086918#0" type="truck_truck" />
    <trip depart="1819.08" departLane="best" from="-3708643" id="truck277" to="-129774671#1" type="truck_truck" />
    <trip depart="1832.21" departLane="best" from="6273600#0" id="truck279" to="-35078322#0" type="truck_truck" />