<routes xmlns:xsi="http://www.w3.org/2001/XMLSchema-instance" xsi:noNamespaceSchemaLocation="http://sumo.dlr.de/xsd/routes_file.xsd">
    <vType id="ped_pedestrian" vClass="pedestrian">
        <param key="has.ssm.device" value="true" />
        <param key="device.ssm.file" value="Results/HDV-0.85_CAV2-0.075_CAV4-0.075/ssm_pedestrian.xml" />
        <param key="device.ssm.probability" value="1" />
        <param key="device.ssm.deterministic" value="True" />
        <param key="device.ssm.measures" value="TTC PET" />
        <param key="device.ssm.thresholds" value="1.5 1" />
        <param key="device.ssm.range" value="20" />
        <param key="device.ssm.extratime" value="0.5" />
        <param key="device.ssm.trajectories" value="False" />
        <param key="device.ssm.geo" value="True" />
        <param key="has.tripinfo.device" value="true" />
        <param key="device.tripinfo.probability" value="true" />
    </vType>
    <person depart="0.00" id="ped0" type="ped_pedestrian">
        <personTrip from="383996048" modes="public" to="-14331347" />
    </person>
    <person depart="3.88" id="ped1" type="ped_pedestrian">
        <personTrip from="-64270035#0" modes="public" to="-492437776" />
    </person>
    <person depart="7.75" id="ped2" type="ped_pedestrian">
        <personTrip from="4401603#4" modes="public" to="39994847#1" />
    </person>
    <person depart="11.63" id="ped3" type="ped_pedestrian">
        <personTrip from="570050937" modes="public" to="-35060878#2" />
    </person>
    <person depart="15.50" id="ped4" type="ped_pedestrian">
        <personTrip from="261720230#1" modes="public" to="-153340544#1" />
    </person>
    <person depart="19.38" id="ped5" type="ped_pedestrian">
        <personTrip from="-48985678" modes="public" to="317027066#1" />
    </person>
    <person depart="23.25" id="ped6" type="ped_pedestrian">
        <personTrip from="-153254952#0" modes="public" to="-442035827#0" />
    </person>
    <person depart="27.13" id="ped7" type="ped_pedestrian">
        <personTrip from="389939200" modes="public" to="35078316#1" />
    </person>
    <person depart="31.00" id="ped8" type="ped_pedestrian">
        <personTrip from="-48985680" modes="public" to="372245388#0" />
    </person>
    <person depart="34.88" id="ped9" type="ped_pedestrian">
        <personTrip from="50017697" modes="public" to="-127200696" />
    </person>
    <person depart="38.75" id="ped10" type="ped_pedestrian">
        <personTrip from="50017686#3" modes="public" to="41772644#0" />
    </person>
    <person depart="42.63" id="ped11" type="ped_pedestrian">
        <personTrip from="13871230#0" modes="public" to="-39179549#2" />
    </person>
    <person depart="46.50" id="ped12" type="ped_pedestrian">
        <personTrip from="67139161#4" modes="public" to="135582946#0" />
    </person>
    <person depart="50.38" id="ped13" type="ped_pedestrian">
        <personTrip from="-35078314#0" modes="public" to="-35078316#2" />
    </person>
    <person depart="54.26" id="ped14" type="ped_pedestrian">
        <personTrip from="52321650#1" modes="public" to="3787679" />
    </person>
    <person depart="58.13" id="ped15" type="ped_pedestrian">
        <personTrip from="50017691#1" modes="public" to="4396056" />
    </person>
    <person depart="62.01" id="ped16" type="ped_pedestrian">
        <personTrip from="35060879#2" modes="public" to="75589202#1" />
    </person>
    <person depart="65.88" id="ped17" type="ped_pedestrian">
        <personTrip from="229049446" modes="public" to="35078322#1" />
    </person>
    <person depart="69.76" id="ped18" type="ped_pedestrian">
        <personTrip from="52321639#2" modes="public" to="3789372#2" />
    </person>
    <person depart="73.63" id="ped19" type="ped_pedestrian">
        <personTrip from="530918664#1" modes="public" to="3708465#0" />
    </person>
    <person depart="77.51" id="ped20" type="ped_pedestrian">
        <personTrip from="422732483#1" modes="public" to="-265511649" />
    </person>
    <person depart="81.38" id="ped21" type="ped_pedestrian">
        <personTrip from="-50016333" modes="public" to="-67139249#2" />
    </person>
    <person depart="85.26" id="ped22" type="ped_pedestrian">
        <personTrip from="-334138114#5" modes="public" to="-52321640#0" />
    </person>
    <person depart="89.13" id="ped23" type="ped_pedestrian">
        <personTrip from="-35078324#0" modes="public" to="-64270137#2" />
    </person>
    <person depart="93.01" id="ped24" type="ped_pedestrian">
        <personTrip from="3791905#0" modes="public" to="153254952#1" />
    </person>
    <person depart="96.88" id="ped25" type="ped_pedestrian">
        <personTrip from="18927706#0" modes="public" to="-473472741" />
    </person>
    <person depart="100.76" id="ped26" type="ped_pedestrian">
        <personTrip from="-6273612#0" modes="public" to="64270137#2" />
    </person>
    <person depart="104.64" id="ped27" type="ped_pedestrian">
        <personTrip from="389938529#0" modes="public" to="3789251#3" />
    </person>
    <person depart="108.51" id="ped28" type="ped_pedestrian">
        <personTrip from="-41772641" modes="public" to="4396056" />
    </person>
    <person depart="112.39" id="ped29" type="ped_pedestrian">
        <personTrip from="-401764333#0" modes="public" to="229061149" />
    </person>
    <person depart="116.26" id="ped30" type="ped_pedestrian">
        <personTrip from="904142602#0" modes="public" to="383996050" />
    </person>
    <person depart="120.14" id="ped31" type="ped_pedestrian">
        <personTrip from="35081617#1" modes="public" to="401764331" />
    </person>
    <person depart="124.01" id="ped32" type="ped_pedestrian">
        <personTrip from="52321647" modes="public" to="48985674#1" />
    </person>
    <person depart="127.89" id="ped33" type="ped_pedestrian">
        <personTrip from="-515972530" modes="public" to="-229061163#0" />
    </person>
    <person depart="131.76" id="ped34" type="ped_pedestrian">
        <personTrip from="125814491#1" modes="public" to="-6273612#1" />
    </person>
    <person depart="135.64" id="ped35" type="ped_pedestrian">
        <personTrip from="-473472743#1" modes="public" to="648631257#2" />
    </person>
    <person depart="139.51" id="ped36" type="ped_pedestrian">
        <personTrip from="549289141#3" modes="public" to="125814491#0" />
    </person>
    <person depart="143.39" id="ped37" type="ped_pedestrian">
        <personTrip from="39179549#1" modes="public" to="244844370#2" />
    </person>
    <person depart="147.26" id="ped38" type="ped_pedestrian">
        <personTrip from="60693102#2" modes="public" to="290533435" />
    </person>
    <person depart="151.14" id="ped39" type="ped_pedestrian">
        <personTrip from="-619879374#1" modes="public" to="-543369723" />
    </person>
    <person depart="155.01" id="ped40" type="ped_pedestrian">
        <personTrip from="354380395#1" modes="public" to="-619585298" />
    </person>
    <person depart="158.89" id="ped41" type="ped_pedestrian">
        <personTrip from="3708838#4" modes="public" to="570050942#3" />
    </person>
    <person depart="162.77" id="ped42" type="ped_pedestrian">
        <personTrip from="24807207#2" modes="public" to="-48985679" />
    </person>
    <person depart="166.64" id="ped43" type="ped_pedestrian">
        <personTrip from="94838283#1" modes="public" to="32866923#1" />
    </person>
    <person depart="170.52" id="ped44" type="ped_pedestrian">
        <personTrip from="-35060879#2" modes="public" to="-271946365#3" />
    </person>
    <person depart="174.39" id="ped45" type="ped_pedestrian">
        <personTrip from="-361409607" modes="public" to="3789571#2" />
    </person>
    <person depart="178.27" id="ped46" type="ped_pedestrian">
        <personTrip from="497328800#0" modes="public" to="261720230#1" />
    </person>
    <person depart="182.14" id="ped47" type="ped_pedestrian">
        <personTrip from="-296747003#0" modes="public" to="229119089#1" />
    </person>
    <person depart="186.02" id="ped48" type="ped_pedestrian">
        <personTrip from="94838278#3" modes="public" to="35059863#1" />
    </person>
    <person depart="189.89" id="ped49" type="ped_pedestrian">
        <personTrip from="75589200" modes="public" to="530918663" />
    </person>
    <person depart="193.77" id="ped50" type="ped_pedestrian">
        <personTrip from="-129774671#1" modes="public" to="436633350#1" />
    </person>
    <person depart="197.64" id="ped51" type="ped_pedestrian">
        <personTrip from="39994849#1" modes="public" to="35060880" />
    </person>
    <person depart="201.52" id="ped52" type="ped_pedestrian">
        <personTrip from="-6273612#0" modes="public" to="384351845#1" />
    </person>
    <person depart="205.39" id="ped53" type="ped_pedestrian">
        <personTrip from="-361409608#2" modes="public" to="278831086" />
    </person>
    <person depart="209.27" id="ped54" type="ped_pedestrian">
        <personTrip from="283027290#0" modes="public" to="668344574#1" />
    </person>
    <person depart="213.15" id="ped55" type="ped_pedestrian">
        <personTrip from="549289141#2" modes="public" to="-619879373" />
    </person>
    <person depart="217.02" id="ped56" type="ped_pedestrian">
        <personTrip from="316385564" modes="public" to="-422732485#1" />
    </person>
    <person depart="220.90" id="ped57" type="ped_pedestrian">
        <personTrip from="60693101" modes="public" to="543201145#0" />
    </person>
    <person depart="224.77" id="ped58" type="ped_pedestrian">
        <personTrip from="-80439756#1" modes="public" to="383996048" />
    </person>
    <person depart="228.65" id="ped59" type="ped_pedestrian">
        <personTrip from="3789251#3" modes="public" to="-39178107#1" />
    </person>
    <person depart="232.52" id="ped60" type="ped_pedestrian">
        <personTrip from="473472738#1" modes="public" to="35078312" />
    </person>
    <person depart="236.40" id="ped61" type="ped_pedestrian">
        <personTrip from="48985677" modes="public" to="35059863#3" />
    </person>
    <person depart="240.27" id="ped62" type="ped_pedestrian">
        <personTrip from="-125813720" modes="public" to="128450677#1" />
    </person>
    <person depart="244.15" id="ped63" type="ped_pedestrian">
        <personTrip from="-13871250" modes="public" to="636824321" />
    </person>
    <person depart="248.02" id="ped64" type="ped_pedestrian">
        <personTrip from="549289144" modes="public" to="52321640#1" />
    </person>
    <person depart="251.90" id="ped65" type="ped_pedestrian">
        <personTrip from="-94838283#1" modes="public" to="-291344732#1" />
    </person>
    <person depart="255.77" id="ped66" type="ped_pedestrian">
        <personTrip from="549289143" modes="public" to="665684897#1" />
    </person>
    <person depart="259.65" id="ped67" type="ped_pedestrian">
        <personTrip from="-35060878#0" modes="public" to="31004181#4" />
    </person>
    <person depart="263.53" id="ped68" type="ped_pedestrian">
        <personTrip from="-310196057#0" modes="public" to="473472735" />
    </person>
    <person depart="267.40" id="ped69" type="ped_pedestrian">
        <personTrip from="473472745#0" modes="public" to="-376394517" />
    </person>
    <person depart="271.28" id="ped70" type="ped_pedestrian">
        <personTrip from="296747003#0" modes="public" to="35078321#1" />
    </person>
    <person depart="275.15" id="ped71" type="ped_pedestrian">
        <personTrip from="-619879374#1" modes="public" to="543369723" />
    </person>
    <person depart="279.03" id="ped72" type="ped_pedestrian">
        <personTrip from="265511640" modes="public" to="-473472745#0" />
    </person>
    <person depart="282.90" id="ped73" type="ped_pedestrian">
        <personTrip from="35078312" modes="public" to="4396064#0" />
    </person>
    <person depart="286.78" id="ped74" type="ped_pedestrian">
        <personTrip from="-46055277" modes="public" to="104378042#0" />
    </person>
    <person depart="290.65" id="ped75" type="ped_pedestrian">
        <personTrip from="94838278#1" modes="public" to="389939200" />
    </person>
    <person depart="294.53" id="ped76" type="ped_pedestrian">
        <personTrip from="278927967#0" modes="public" to="334138114#3" />
    </person>
    <person depart="298.40" id="ped77" type="ped_pedestrian">
        <personTrip from="-3708643" modes="public" to="-49710569#2" />
    </person>
    <person depart="302.28" id="ped78" type="ped_pedestrian">
        <personTrip from="13871189" modes="public" to="372245387#0" />
    </person>
    <person depart="306.15" id="ped79" type="ped_pedestrian">
        <personTrip from="-52321639#0" modes="public" to="-48985680" />
    </person>
    <person depart="310.03" id="ped80" type="ped_pedestrian">
        <personTrip from="-310196058" modes="public" to="3789575#1" />
    </person>
    <person depart="313.91" id="ped81" type="ped_pedestrian">
        <personTrip from="-515972530" modes="public" to="585819383#1" />
    </person>
    <person depart="317.78" id="ped82" type="ped_pedestrian">
        <personTrip from="530918662#1" modes="public" to="-310196058" />
    </person>
    <person depart="321.66" id="ped83" type="ped_pedestrian">
        <personTrip from="-52321641#5" modes="public" to="399483545" />
    </person>
    <person depart="325.53" id="ped84" type="ped_pedestrian">
        <personTrip from="-48863650" modes="public" to="-3789251#0" />
    </person>
    <person depart="329.41" id="ped85" type="ped_pedestrian">
        <personTrip from="64270137#0" modes="public" to="361409608#3" />
    </person>
    <person depart="333.28" id="ped86" type="ped_pedestrian">
        <personTrip from="292662750#0" modes="public" to="4908199#0" />
    </person>
    <person depart="337.16" id="ped87" type="ped_pedestrian">
        <personTrip from="50017691#1" modes="public" to="-4396159#3" />
    </person>
    <person depart="341.03" id="ped88" type="ped_pedestrian">
        <personTrip from="-35078322#0" modes="public" to="27806076#3" />
    </person>
    <person depart="344.91" id="ped89" type="ped_pedestrian">
        <personTrip from="265511649" modes="public" to="292055769" />
    </person>
    <person depart="348.78" id="ped90" type="ped_pedestrian">
        <personTrip from="4396056" modes="public" to="39994845" />
    </person>
    <person depart="352.66" id="ped91" type="ped_pedestrian">
        <personTrip from="876578184#1" modes="public" to="-35078322#2" />
    </person>
    <person depart="356.53" id="ped92" type="ped_pedestrian">
        <personTrip from="251421389#3" modes="public" to="13871198#0" />
    </person>
    <person depart="360.41" id="ped93" type="ped_pedestrian">
        <personTrip from="530918664#1" modes="public" to="-549289141#2" />
    </person>
    <person depart="364.29" id="ped94" type="ped_pedestrian">
        <personTrip from="-4396159#3" modes="public" to="279381058#0" />
    </person>
    <person depart="368.16" id="ped95" type="ped_pedestrian">
        <personTrip from="261720230#1" modes="public" to="-64270137#3" />
    </person>
    <person depart="372.04" id="ped96" type="ped_pedestrian">
        <personTrip from="-549289142" modes="public" to="6273610#2" />
    </person>
    <person depart="375.91" id="ped97" type="ped_pedestrian">
        <personTrip from="278927971#0" modes="public" to="530918664#0" />
    </person>
    <person depart="379.79" id="ped98" type="ped_pedestrian">
        <personTrip from="35078321#2" modes="public" to="-290533432" />
    </person>
    <person depart="383.66" id="ped99" type="ped_pedestrian">
        <personTrip from="94838283#4" modes="public" to="52321641#5" />
    </person>
    <person depart="387.54" id="ped100" type="ped_pedestrian">
        <personTrip from="750330944" modes="public" to="6273612#2" />
    </person>
    <person depart="391.41" id="ped101" type="ped_pedestrian">
        <personTrip from="52324406" modes="public" to="-401767522#2" />
    </person>
    <person depart="395.29" id="ped102" type="ped_pedestrian">
        <personTrip from="31004181#3" modes="public" to="-48859797#0" />
    </person>
    <person depart="399.16" id="ped103" type="ped_pedestrian">
        <personTrip from="251421389#1" modes="public" to="-292662748" />
    </person>
    <person depart="403.04" id="ped104" type="ped_pedestrian">
        <personTrip from="229061149" modes="public" to="876578185" />
    </person>
    <person depart="406.91" id="ped105" type="ped_pedestrian">
        <personTrip from="-6273600#0" modes="public" to="4908185" />
    </person>
    <person depart="410.79" id="ped106" type="ped_pedestrian">
        <personTrip from="283027291" modes="public" to="265511640" />
    </person>
    <person depart="414.66" id="ped107" type="ped_pedestrian">
        <personTrip from="67139161#4" modes="public" to="94838278#1" />
    </person>
    <person depart="418.54" id="ped108" type="ped_pedestrian">
        <personTrip from="35081617#0" modes="public" to="43326326" />
    </person>
    <person depart="422.42" id="ped109" type="ped_pedestrian">
        <personTrip from="-39179549#1" modes="public" to="-7989950#1" />
    </person>
    <person depart="426.29" id="ped110" type="ped_pedestrian">
        <personTrip from="750330944" modes="public" to="3708465#5" />
    </person>
    <person depart="430.17" id="ped111" type="ped_pedestrian">
        <personTrip from="35078314#2" modes="public" to="440850338" />
    </person>
    <person depart="434.04" id="ped112" type="ped_pedestrian">
        <personTrip from="-291344731#3" modes="public" to="3708838#4" />
    </person>
    <person depart="437.92" id="ped113" type="ped_pedestrian">
        <personTrip from="316644270#2" modes="public" to="52822147#2" />
    </person>
    <person depart="441.79" id="ped114" type="ped_pedestrian">
        <personTrip from="-399483546#0" modes="public" to="677113762#1" />
    </person>
    <person depart="445.67" id="ped115" type="ped_pedestrian">
        <personTrip from="-334138114#5" modes="public" to="-4396038#2" />
    </person>
    <person depart="449.54" id="ped116" type="ped_pedestrian">
        <personTrip from="372256216#7" modes="public" to="39994846#2" />
    </person>
    <person depart="453.42" id="ped117" type="ped_pedestrian">
        <personTrip from="-52321641#0" modes="public" to="-3708578#3" />
    </person>
    <person depart="457.29" id="ped118" type="ped_pedestrian">
        <personTrip from="56681848" modes="public" to="-543369723" />
    </person>
    <person depart="461.17" id="ped119" type="ped_pedestrian">
        <personTrip from="372256216#7" modes="public" to="3789372#3" />
    </person>
    <person depart="465.04" id="ped120" type="ped_pedestrian">
        <personTrip from="261557474#1" modes="public" to="3708838#3" />
    </person>
    <person depart="468.92" id="ped121" type="ped_pedestrian">
        <personTrip from="33920769#7" modes="public" to="64270035#1" />
    </person>
    <person depart="472.80" id="ped122" type="ped_pedestrian">
        <personTrip from="-461653746" modes="public" to="432565295#8" />
    </person>
    <person depart="476.67" id="ped123" type="ped_pedestrian">
        <personTrip from="-52321642#0" modes="public" to="244844370#2" />
    </person>
    <person depart="480.55" id="ped124" type="ped_pedestrian">
        <personTrip from="399483548#0" modes="public" to="-83942465" />
    </person>
    <person depart="484.42" id="ped125" type="ped_pedestrian">
        <personTrip from="125814598" modes="public" to="442035819#1" />
    </person>
    <person depart="488.30" id="ped126" type="ped_pedestrian">
        <personTrip from="-317003256" modes="public" to="290533432" />
    </person>
    <person depart="492.17" id="ped127" type="ped_pedestrian">
        <personTrip from="94838283#2" modes="public" to="94838278#3" />
    </person>
    <person depart="496.05" id="ped128" type="ped_pedestrian">
        <personTrip from="-317027066#0" modes="public" to="-473472747" />
    </person>
    <person depart="499.92" id="ped129" type="ped_pedestrian">
        <personTrip from="-6273600#0" modes="public" to="64270030" />
    </person>
    <person depart="503.80" id="ped130" type="ped_pedestrian">
        <personTrip from="549611602" modes="public" to="549289147" />
    </person>
    <person depart="507.67" id="ped131" type="ped_pedestrian">
        <personTrip from="185263806#1" modes="public" to="-399483546#0" />
    </person>
    <person depart="511.55" id="ped132" type="ped_pedestrian">
        <personTrip from="52321641#1" modes="public" to="42002768#3" />
    </person>
    <person depart="515.42" id="ped133" type="ped_pedestrian">
        <personTrip from="3789252#1" modes="public" to="904142601#0" />
    </person>
    <person depart="519.30" id="ped134" type="ped_pedestrian">
        <personTrip from="39178138" modes="public" to="-128450676#0" />
    </person>
    <person depart="523.18" id="ped135" type="ped_pedestrian">
        <personTrip from="507543724#1" modes="public" to="-83942465" />
    </person>
    <person depart="527.05" id="ped136" type="ped_pedestrian">
        <personTrip from="39255348#6" modes="public" to="64270139#1" />
    </person>
    <person depart="530.93" id="ped137" type="ped_pedestrian">
        <personTrip from="-3789251#3" modes="public" to="-3708463#1" />
    </person>
    <person depart="534.80" id="ped138" type="ped_pedestrian">
        <personTrip from="-357010634#2" modes="public" to="35078322#3" />
    </person>
    <person depart="538.68" id="ped139" type="ped_pedestrian">
        <personTrip from="-636824322#1" modes="public" to="3789247#1" />
    </person>
    <person depart="542.55" id="ped140" type="ped_pedestrian">
        <personTrip from="43325906" modes="public" to="-461653745" />
    </person>
    <person depart="546.43" id="ped141" type="ped_pedestrian">
        <personTrip from="378969889" modes="public" to="-619879374#0" />
    </person>
    <person depart="550.30" id="ped142" type="ped_pedestrian">
        <personTrip from="31004181#8" modes="public" to="585819383#1" />
    </person>
    <person depart="554.18" id="ped143" type="ped_pedestrian">
        <personTrip from="52321649#2" modes="public" to="-35078311" />
    </person>
    <person depart="558.05" id="ped144" type="ped_pedestrian">
        <personTrip from="265511649" modes="public" to="-64270137#0" />
    </person>
    <person depart="561.93" id="ped145" type="ped_pedestrian">
        <personTrip from="-125814491#1" modes="public" to="48482641#1" />
    </person>
    <person depart="565.80" id="ped146" type="ped_pedestrian">
        <personTrip from="3791905#2" modes="public" to="-60693101" />
    </person>
    <person depart="569.68" id="ped147" type="ped_pedestrian">
        <personTrip from="4401781#2" modes="public" to="35078322#1" />
    </person>
    <person depart="573.56" id="ped148" type="ped_pedestrian">
        <personTrip from="271946366" modes="public" to="-128450676#3" />
    </person>
    <person depart="577.43" id="ped149" type="ped_pedestrian">
        <personTrip from="-317027067" modes="public" to="550187799" />
    </person>
    <person depart="581.31" id="ped150" type="ped_pedestrian">
        <personTrip from="585819381#1" modes="public" to="35078316#2" />
    </person>
    <person depart="585.18" id="ped151" type="ped_pedestrian">
        <personTrip from="52321641#3" modes="public" to="3708643" />
    </person>
    <person depart="589.06" id="ped152" type="ped_pedestrian">
        <personTrip from="-388116868" modes="public" to="-372256221" />
    </person>
    <person depart="592.93" id="ped153" type="ped_pedestrian">
        <personTrip from="-94838283#2" modes="public" to="570050942#5" />
    </person>
    <person depart="596.81" id="ped154" type="ped_pedestrian">
        <personTrip from="50005612#3" modes="public" to="530918663" />
    </person>
    <person depart="600.68" id="ped155" type="ped_pedestrian">
        <personTrip from="570050942#5" modes="public" to="-473472743#0" />
    </person>
    <person depart="604.56" id="ped156" type="ped_pedestrian">
        <personTrip from="-549289142" modes="public" to="-35081617#1" />
    </person>
    <person depart="608.43" id="ped157" type="ped_pedestrian">
        <personTrip from="48985679" modes="public" to="550187800" />
    </person>
    <person depart="612.31" id="ped158" type="ped_pedestrian">
        <personTrip from="25631150#1" modes="public" to="3789372#5" />
    </person>
    <person depart="616.18" id="ped159" type="ped_pedestrian">
        <personTrip from="-39179549#1" modes="public" to="636824322#1" />
    </person>
    <person depart="620.06" id="ped160" type="ped_pedestrian">
        <personTrip from="542383591#0" modes="public" to="80433528" />
    </person>
    <person depart="623.94" id="ped161" type="ped_pedestrian">
        <personTrip from="507535910" modes="public" to="549611608" />
    </person>
    <person depart="627.81" id="ped162" type="ped_pedestrian">
        <personTrip from="-14331347" modes="public" to="4401603#4" />
    </person>
    <person depart="631.69" id="ped163" type="ped_pedestrian">
        <personTrip from="135582840#0" modes="public" to="64062143#0" />
    </person>
    <person depart="635.56" id="ped164" type="ped_pedestrian">
        <personTrip from="50014743" modes="public" to="542383590#1" />
    </person>
    <person depart="639.44" id="ped165" type="ped_pedestrian">
        <personTrip from="507535910" modes="public" to="-6273612#0" />
    </person>
    <person depart="643.31" id="ped166" type="ped_pedestrian">
        <personTrip from="491191273#0" modes="public" to="-358260293" />
    </person>
    <person depart="647.19" id="ped167" type="ped_pedestrian">
        <personTrip from="543369723" modes="public" to="530918661#5" />
    </person>
    <person depart="651.06" id="ped168" type="ped_pedestrian">
        <personTrip from="-4908204#1" modes="public" to="507543724#1" />
    </person>
    <person depart="654.94" id="ped169" type="ped_pedestrian">
        <personTrip from="290533449#0" modes="public" to="-94838278#1" />
    </person>
    <person depart="658.81" id="ped170" type="ped_pedestrian">
        <personTrip from="50005612#2" modes="public" to="-50016333" />
    </person>
    <person depart="662.69" id="ped171" type="ped_pedestrian">
        <personTrip from="-14047796" modes="public" to="-442035815#1" />
    </person>
    <person depart="666.56" id="ped172" type="ped_pedestrian">
        <personTrip from="12854626#2" modes="public" to="542383590#1" />
    </person>
    <person depart="670.44" id="ped173" type="ped_pedestrian">
        <personTrip from="708148471" modes="public" to="-64270139#0" />
    </person>
    <person depart="674.31" id="ped174" type="ped_pedestrian">
        <personTrip from="384351845#1" modes="public" to="24807207#2" />
    </person>
    <person depart="678.19" id="ped175" type="ped_pedestrian">
        <personTrip from="8403822#1" modes="public" to="35060879#2" />
    </person>
    <person depart="682.07" id="ped176" type="ped_pedestrian">
        <personTrip from="64270139#1" modes="public" to="-3708463#1" />
    </person>
    <person depart="685.94" id="ped177" type="ped_pedestrian">
        <personTrip from="75474830" modes="public" to="-422732485#1" />
    </person>
    <person depart="689.82" id="ped178" type="ped_pedestrian">
        <personTrip from="682430068#0" modes="public" to="-6273600#0" />
    </person>
    <person depart="693.69" id="ped179" type="ped_pedestrian">
        <personTrip from="-358260293" modes="public" to="278831086" />
    </person>
    <person depart="697.57" id="ped180" type="ped_pedestrian">
        <personTrip from="4396040" modes="public" to="125814461#0" />
    </person>
    <person depart="701.44" id="ped181" type="ped_pedestrian">
        <personTrip from="3789250#1" modes="public" to="32866923#4" />
    </person>
    <person depart="705.32" id="ped182" type="ped_pedestrian">
        <personTrip from="232841336#1" modes="public" to="3708463#2" />
    </person>
    <person depart="709.19" id="ped183" type="ped_pedestrian">
        <personTrip from="-550187799" modes="public" to="422732486" />
    </person>
    <person depart="713.07" id="ped184" type="ped_pedestrian">
        <personTrip from="-125814461#1" modes="public" to="6273612#1" />
    </person>
    <person depart="716.94" id="ped185" type="ped_pedestrian">
        <personTrip from="35078311" modes="public" to="43538582" />
    </person>
    <person depart="720.82" id="ped186" type="ped_pedestrian">
        <personTrip from="4401781#3" modes="public" to="399483546#1" />
    </person>
    <person depart="724.69" id="ped187" type="ped_pedestrian">
        <personTrip from="153254952#1" modes="public" to="-310196057#1" />
    </person>
    <person depart="728.57" id="ped188" type="ped_pedestrian">
        <personTrip from="39255349#0" modes="public" to="129212233#1" />
    </person>
    <person depart="732.45" id="ped189" type="ped_pedestrian">
        <personTrip from="125814461#1" modes="public" to="52324405" />
    </person>
    <person depart="736.32" id="ped190" type="ped_pedestrian">
        <personTrip from="436633350#0" modes="public" to="-8403822#0" />
    </person>
    <person depart="740.20" id="ped191" type="ped_pedestrian">
        <personTrip from="-94838283#3" modes="public" to="25631165#3" />
    </person>
    <person depart="744.07" id="ped192" type="ped_pedestrian">
        <personTrip from="251421389#3" modes="public" to="-757833288" />
    </person>
    <person depart="747.95" id="ped193" type="ped_pedestrian">
        <personTrip from="-372256221" modes="public" to="261557483" />
    </person>
    <person depart="751.82" id="ped194" type="ped_pedestrian">
        <personTrip from="64270141" modes="public" to="39994847#1" />
    </person>
    <person depart="755.70" id="ped195" type="ped_pedestrian">