<?xml version="1.0" encoding="UTF-8"?>

<!-- generated on 03/07/21 13:23:50 by Eclipse SUMO netconvert Version 1.8.0
<configuration xmlns:xsi="http://www.w3.org/2001/XMLSchema-instance" xsi:noNamespaceSchemaLocation="http://sumo.dlr.de/xsd/netconvertConfiguration.xsd">

    <input>
        <type-files value="C:\Program%20Files%20(x86)\Eclipse\Sumo\data\typemap\osmNetconvert.typ.xml,C:\Program%20Files%20(x86)\Eclipse\Sumo\data\typemap\osmNetconvertUrbanDe.typ.xml,C:\Program%20Files%20(x86)\Eclipse\Sumo\data\typemap\osmNetconvertPedestrians.typ.xml,C:\Program%20Files%20(x86)\Eclipse\Sumo\data\typemap\osmNetconvertBicycle.typ.xml"/>
        <osm-files value="osm_bbox.osm.xml"/>
    </input>

    <output>
        <output-file value="osm.net.xml"/>
        <output.street-names value="true"/>
        <output.original-names value="true"/>
        <ptstop-output value="osm_stops.add.xml"/>
        <ptline-output value="osm_ptlines.xml"/>
    </output>

    <projection>
        <proj.utm value="true"/>
    </projection>

    <processing>
        <geometry.remove value="true"/>
        <roundabouts.guess value="true"/>
        <lefthand value="true"/>
    </processing>

    <tls_building>
        <tls.discard-simple value="true"/>
        <tls.join value="true"/>
        <tls.guess-signals value="true"/>
        <tls.default-type value="actuated"/>
    </tls_building>

    <ramp_guessing>
        <ramps.guess value="true"/>
    </ramp_guessing>

    <junctions>
        <junctions.join value="true"/>
        <junctions.corner-detail value="5"/>
    </junctions>

    <pedestrian>
        <crossings.guess value="true"/>
    </pedestrian>

    <railway>
        <railway.topology.repair value="true"/>
        <railway.topology.repair.stop-turn value="true"/>
    </railway>

    <report>
        <verbose value="true"/>
        <aggregate-warnings value="5"/>
    </report>

</configuration>
-->

<additional xmlns:xsi="http://www.w3.org/2001/XMLSchema-instance" xsi:noNamespaceSchemaLocation="http://sumo.dlr.de/xsd/additional_file.xsd">
    <busStop id="-842478106" name="Stoneybatter" lane="-125814738#1_1" startPos="54.04" endPos="69.04" friendlyPos="true" lines="39 39a"/>
    <busStop id="-842478107" name="Manor Street" lane="-3708463#1_1" startPos="35.86" endPos="50.86" friendlyPos="true" lines="39 39a"/>
    <busStop id="-842478111" name="Blackhall Place" lane="-3708465#3_1" startPos="22.92" endPos="37.92" friendlyPos="true" lines="39 39a"/>
    <busStop id="1396867040" name="Museum" lane="317127413#0_0" startPos="339.71" endPos="364.71" friendlyPos="true" lines="Luas Red Line">
        <access lane="-31004179#1_0" pos="195.52" length="32.99" friendlyPos="1"/>
        <access lane="31004179#1_0" pos="88.42" length="27.90" friendlyPos="1"/>
        <access lane="49036343#1_0" pos="89.40" length="1.82" friendlyPos="1"/>
        <access lane="64062143#0_0" pos="0.00" length="101.71" friendlyPos="1"/>
        <access lane="64062143#1_0" pos="129.89" length="100.74" friendlyPos="1"/>
    </busStop>
    <busStop id="255016985" name="Usher&apos;s Quay, Usher Street" lane="4401781#3_1" startPos="11.37" endPos="26.37" friendlyPos="true" lines="39 37 39a 25A 747 145 79 70 25B 26 51d 66 66b 66x 67x 69x"/>
    <busStop id="255016985@52346" name="Usher&apos;s Quay, Usher Street" lane="361409608#2_1" startPos="8.37" endPos="23.37" friendlyPos="true" lines="67 25A 25B"/>
    <busStop id="2929146637" name="Inns Quay, Chancery Place" lane="4408238#1_1" startPos="98.07" endPos="113.07" friendlyPos="true" lines="145"/>
    <busStop id="3451120785" name="Jervis" lane="338055464#18_0" startPos="5.57" endPos="30.57" friendlyPos="true" lines="Luas Red Line">
        <access lane="14401069#4_0" pos="18.67" length="10.36" friendlyPos="1"/>
        <access lane="278831085_0" pos="11.37" length="5.63" friendlyPos="1"/>
        <access lane="278831091#1_0" pos="16.75" length="7.95" friendlyPos="1"/>
        <access lane="515972527#1_0" pos="0.20" length="27.24" friendlyPos="1"/>
        <access lane="543201145#0_0" pos="0.00" length="22.02" friendlyPos="1"/>
    </busStop>
    <busStop id="3451159931" name="Four Courts" lane="338055464#8_0" startPos="0.50" endPos="25.50" friendlyPos="true" lines="Luas Red Line">
        <access lane="-39994848#1_0" pos="10.50" length="0.76" friendlyPos="1"/>
        <access lane="278927968_0" pos="37.89" length="3.68" friendlyPos="1"/>
        <access lane="278927969_0" pos="10.64" length="10.67" friendlyPos="1"/>
        <access lane="278927971#1_0" pos="0.00" length="19.52" friendlyPos="1"/>
        <access lane="39994848#1_0" pos="37.88" length="3.76" friendlyPos="1"/>
    </busStop>
    <busStop id="3451318404" name="Jervis" lane="352511043#2_0" startPos="9.75" endPos="34.75" friendlyPos="true" lines="Luas Red Line">
        <access lane="14401069#2_0" pos="19.69" length="5.51" friendlyPos="1"/>
        <access lane="278831086_0" pos="16.17" length="3.45" friendlyPos="1"/>
        <access lane="278831088_0" pos="15.23" length="9.98" friendlyPos="1"/>
        <access lane="279381058#2_0" pos="0.00" length="26.38" friendlyPos="1"/>
        <access lane="279381058#3_0" pos="0.00" length="27.45" friendlyPos="1"/>
    </busStop>
    <busStop id="3451318438" lane="352511043#13_0" startPos="28.76" endPos="53.46" friendlyPos="true" lines="Luas Red Line">
        <access lane="-39994848#1_0" pos="9.64" length="4.68" friendlyPos="1"/>
        <access lane="278927968_0" pos="38.79" length="9.10" friendlyPos="1"/>
        <access lane="278927969_0" pos="9.77" length="5.24" friendlyPos="1"/>
        <access lane="278927971#2_0" pos="0.20" length="18.35" friendlyPos="1"/>
        <access lane="39994848#1_0" pos="38.73" length="1.68" friendlyPos="1"/>
    </busStop>
    <busStop id="3452492564" name="Broadstone - DIT" lane="549411867#0_0" startPos="37.63" endPos="62.63" friendlyPos="true" lines="Luas Green Line">
        <access lane="-370381577#0_0" pos="149.43" length="122.88" friendlyPos="1"/>
        <access lane="-64270140_0" pos="0.00" length="92.47" friendlyPos="1"/>
        <access lane="261557483_0" pos="0.00" length="122.21" friendlyPos="1"/>
        <access lane="370381577#0_0" pos="0.00" length="139.58" friendlyPos="1"/>
        <access lane="64270140_0" pos="176.08" length="91.87" friendlyPos="1"/>
    </busStop>
    <busStop id="3452492565" name="Dominick" lane="397464858#1_0" startPos="20.29" endPos="45.29" friendlyPos="true" lines="Luas Green Line">
        <access lane="397464856#3_0" pos="30.49" length="12.74" friendlyPos="1"/>
        <access lane="530918661#2_0" pos="13.26" length="27.98" friendlyPos="1"/>
        <access lane="530918661#3_0" pos="11.43" length="13.20" friendlyPos="1"/>
        <access lane="530918662#0_0" pos="0.00" length="26.89" friendlyPos="1"/>
        <access lane="542383590#1_0" pos="47.52" length="4.20" friendlyPos="1"/>
    </busStop>
    <busStop id="3709896536" name="Smithfield" lane="338055464#2_0" startPos="10.42" endPos="35.42" friendlyPos="true" lines="Luas Red Line">
        <access lane="-227983488_0" pos="21.52" length="34.56" friendlyPos="1"/>
        <access lane="13871395_0" pos="29.90" length="18.56" friendlyPos="1"/>
        <access lane="227983488_0" pos="34.69" length="39.36" friendlyPos="1"/>
        <access lane="278927974#0_0" pos="0.20" length="44.61" friendlyPos="1"/>
        <access lane="706767124#1_0" pos="8.20" length="36.94" friendlyPos="1"/>
    </busStop>
    <busStop id="4683372272" lane="352511043#18_0" startPos="17.33" endPos="42.33" friendlyPos="true" lines="Luas Red Line">
        <access lane="-227983488_0" pos="21.46" length="38.81" friendlyPos="1"/>
        <access lane="13871395_0" pos="30.25" length="14.33" friendlyPos="1"/>
        <access lane="227983488_0" pos="34.75" length="43.61" friendlyPos="1"/>
        <access lane="278927974#2_0" pos="0.00" length="44.76" friendlyPos="1"/>
        <access lane="706767124#1_0" pos="8.20" length="36.99" friendlyPos="1"/>
    </busStop>
    <busStop id="4683372273" lane="352511043#28_0" startPos="79.42" endPos="104.42" friendlyPos="true" lines="Luas Red Line">
        <access lane="-31004179#1_0" pos="195.52" length="37.16" friendlyPos="1"/>
        <access lane="31004179#1_0" pos="88.42" length="32.11" friendlyPos="1"/>
        <access lane="49036343#1_0" pos="89.43" length="2.73" friendlyPos="1"/>
        <access lane="64062143#1_0" pos="129.89" length="105.07" friendlyPos="1"/>
        <access lane="75474830_0" pos="44.30" length="100.15" friendlyPos="1"/>
    </busStop>
    <busStop id="5298637240" name="Dominick" lane="548477025#0_0" startPos="0.00" endPos="12.50" friendlyPos="true" lines="Luas Green Line">
        <access lane="397464856#3_0" pos="19.02" length="22.56" friendlyPos="1"/>
        <access lane="530918661#2_0" pos="13.26" length="8.14" friendlyPos="1"/>
        <access lane="530918661#3_0" pos="0.00" length="3.31" friendlyPos="1"/>
        <access lane="530918662#0_0" pos="0.00" length="7.96" friendlyPos="1"/>
        <access lane="542383590#1_0" pos="58.98" length="5.77" friendlyPos="1"/>
    </busStop>
    <busStop id="5597069859" name="Ha&apos;penny Bridge" lane="556390402#0_1" startPos="21.61" endPos="36.61" friendlyPos="true"/>
    <busStop id="598490680" name="#1444 Merchant&apos;s Quay, Winetavern Street" lane="3789575#0_1" startPos="101.83" endPos="116.83" friendlyPos="true" lines="39 37 39a 145 79 69x"/>
    <busStop id="633552565" name="Blackhall Place" lane="3708465#5_1" startPos="0.00" endPos="10.31" friendlyPos="true" lines="39 37 39a"/>
    <busStop id="650220218" name="#1479 Ormond Quay, Capel Street" lane="292236197_1" startPos="1.77" endPos="16.77" friendlyPos="true" lines="25 26"/>
    <busStop id="650220218@18359" name="#1479 Ormond Quay, Capel Street" lane="12854626#3_1" startPos="31.21" endPos="46.21" friendlyPos="true" lines="145"/>
    <busStop id="664499926" name="Essex Quay, Exchange Street" lane="292236197_1" startPos="40.38" endPos="55.38" friendlyPos="true" lines="39 37 39a 145 79 69x"/>
    <busStop id="667281715" name="Wolfe Tone Quay, Ellis Street" lane="80433528_1" startPos="30.41" endPos="45.41" friendlyPos="true" lines="145 79 79A"/>
    <busStop id="667281715@7176757" name="Wolfe Tone Quay, Ellis Street" lane="13907386_1" startPos="34.46" endPos="49.46" friendlyPos="true" lines="26"/>
    <busStop id="8398652317" name="Broadstone - DIT" lane="548477025#5_0" startPos="409.30" endPos="420.79" friendlyPos="true" lines="Luas Green Line">
        <access lane="-370381577#0_0" pos="149.43" length="117.44" friendlyPos="1"/>
        <access lane="-64270140_0" pos="0.00" length="86.98" friendlyPos="1"/>
        <access lane="261557483_0" pos="0.00" length="117.11" friendlyPos="1"/>
        <access lane="370381577#0_0" pos="0.00" length="134.44" friendlyPos="1"/>
        <access lane="64270140_0" pos="176.08" length="86.48" friendlyPos="1"/>
    </busStop>
    <busStop id="842484735" name="Upper Ormond Quay" lane="12854626#1_1" startPos="17.63" endPos="28.84" friendlyPos="true" lines="39 39a 79 79A"/>
    <busStop id="878117184" name="Stoneybatter" lane="125814738#2_1" startPos="12.45" endPos="27.45" friendlyPos="true" lines="39 37 39a"/>
</additional>
