<?xml version="1.0" encoding="UTF-8"?>
<!-- generated on 2021-03-07 13:23:52.061531 by $Id: ptlines2flows.py v1_3_1+0313-ccb31df3eb jakob.erdmann@dlr.de 2019-09-02 13:26:32 +0200 $ v1_8_0+0044-4820708f3d
  options: 
-->
<routes xmlns:xsi="http://www.w3.org/2001/XMLSchema-instance" xsi:noNamespaceSchemaLocation="http://sumo.dlr.de/xsd/routes_file.xsd">
    <vType id="pt_bus" vClass="bus"/>
    <vType id="pt_tram" vClass="tram"/>
    <vType id="pt_train" vClass="rail"/>
    <vType id="pt_subway" vClass="rail_urban"/>
    <vType id="pt_light_rail" vClass="rail_urban"/>
    <vType id="pt_monorail" vClass="rail"/>
    <vType id="pt_trolleybus" vClass="bus"/>
    <vType id="pt_aerialway" vClass="bus"/>
    <vType id="pt_ferry" vClass="ship"/>
    <route id="pt_bus_66a:0" edges="4401781#3" >
        <stop busStop="255016985" duration="30.00" until="38.0"/> <!-- Usher's Quay, Usher Street -->
    </route>
    <route id="pt_bus_25A:0" edges="556390402#0 556390402#2 125863788 292236197 13907388 3789575#0 3789575#1 529166754 4401781#0 4401781#1 4401781#2 4401781#3 4401781#4 4408221 38587823 37721990 13907386" >
        <stop busStop="255016985" duration="30.00" until="214.0"/> <!-- Usher's Quay, Usher Street -->
    </route>
    <route id="pt_bus_145:0" edges="317127417 80433528 3789578 38587899#0 38587899#1 3789572 361409608#0 361409608#1 361409608#2 361409608#3 4408238#0 4408238#1 4408238#2 12854626#0 12854626#1 12854626#2 12854626#3 3791905#0 3791905#1 3791905#2 3791905#3" >
        <stop busStop="667281715" duration="30.00" until="66.0"/> <!-- Wolfe Tone Quay, Ellis Street -->
        <stop busStop="2929146637" duration="30.00" until="182.0"/> <!-- Inns Quay, Chancery Place -->
        <stop busStop="650220218@18359" duration="30.00" until="241.0"/> <!-- #1479 Ormond Quay, Capel Street -->
    </route>
    <route id="pt_bus_747:0" edges="5976030 242586599 4401781#0 4401781#1 4401781#2 4401781#3 4401781#4 4408221 38587823 37721990 13907386" >
        <stop busStop="255016985" duration="30.00" until="103.0"/> <!-- Usher's Quay, Usher Street -->
    </route>
    <route id="pt_tram_Luas_Green_Line:0" edges="560223962#0 560223962#3 560223962#4 548477025#0 548477025#1 548477025#2 548477025#3 548477025#4 548477025#5" >
        <stop busStop="5298637240" duration="30.00" until="67.0"/> <!-- Dominick -->
        <stop busStop="8398652317" duration="30.00" until="192.0"/> <!-- Broadstone - DIT -->
    </route>
    <route id="pt_bus_25:0" edges="556390402#0 556390402#2 125863788 292236197 13907388 3789575#0 3789575#1 529166754 4401781#0 4401781#1 4401781#2 4401781#3 4401781#4 4408221 38587823 37721990 13907386" >
        <stop busStop="650220218" duration="30.00" until="121.0"/> <!-- #1479 Ormond Quay, Capel Street -->
    </route>
    <route id="pt_bus_67:0" edges="317127417 80433528 3789578 38587899#0 38587899#1 3789572 361409608#0 361409608#1 361409608#2 361409608#3 4408238#0 4408238#1 4408238#2 12854626#0 12854626#1 12854626#2 12854626#3 3791905#0 3791905#1 3791905#2 3791905#3" >
        <stop busStop="255016985@52346" duration="30.00" until="111.0"/> <!-- Usher's Quay, Usher Street -->
    </route>
    <route id="pt_bus_39:1" edges="556390402#0 556390402#2 125863788 292236197 13907388 3789575#0 3789575#1 529166754 4401781#0 4401781#1 4401781#2 4401781#3 4401781#4 4408221 38587823 4401787 14331345 14331347 3708465#0 3708465#3 3708465#4 3708465#5 52822147#0 52822147#1 52822147#2 125814598 125814738#1 125814738#2 563891693 3708463#0 3708463#1 3708463#2" >
        <stop busStop="664499926" duration="30.00" until="88.0"/> <!-- Essex Quay, Exchange Street -->
        <stop busStop="598490680" duration="30.00" until="149.0"/> <!-- #1444 Merchant's Quay, Winetavern Street -->
        <stop busStop="255016985" duration="30.00" until="212.0"/> <!-- Usher's Quay, Usher Street -->
        <stop busStop="633552565" duration="30.00" until="312.0"/> <!-- Blackhall Place -->
        <stop busStop="878117184" duration="30.00" until="395.0"/> <!-- Stoneybatter -->
    </route>
    <route id="pt_bus_70:0" edges="529166754 4401781#0 4401781#1 4401781#2 4401781#3 4401781#4" >
        <stop busStop="255016985" duration="30.00" until="91.0"/> <!-- Usher's Quay, Usher Street -->
    </route>
    <route id="pt_tram_Luas_Green_Line:1" edges="549411867#0 549411867#1 549411867#2 549411867#3 397464858#0 397464858#1 548477024#0 548477024#2" >
        <stop busStop="3452492564" duration="30.00" until="41.0"/> <!-- Broadstone - DIT -->
        <stop busStop="3452492565" duration="30.00" until="138.0"/> <!-- Dominick -->
    </route>
    <route id="pt_bus_25d:0" edges="4401781#0 4401781#1 4401781#2 4401781#3 4401781#4" >
        <stop busStop="255016985" duration="30.00" until="98.0"/> <!-- Usher's Quay, Usher Street -->
    </route>
    <route id="pt_tram_Luas_Red_Line:1" edges="317127413#0 317127413#1 317127413#2 317127413#3 317127413#4 317127413#5 317127413#6 317127413#7 338055464#1 338055464#2 338055464#3 338055464#4 338055464#5 338055464#6 338055464#7 338055464#8 338055464#9 338055464#10 338055464#11 338055464#12 338055464#13 338055464#14 338055464#15 338055464#16 338055464#17 338055464#18 338055464#19 338055464#20 338055464#21" >
        <stop busStop="1396867040" duration="30.00" until="64.0"/> <!-- Museum -->
        <stop busStop="3709896536" duration="30.00" until="167.0"/> <!-- Smithfield -->
        <stop busStop="3451159931" duration="30.00" until="226.0"/> <!-- Four Courts -->
        <stop busStop="3451120785" duration="30.00" until="315.0"/> <!-- Jervis -->
    </route>
    <route id="pt_bus_39:0" edges="-3708463#2 -3708463#1 -3708463#0 -563891693 -125814738#2 -125814738#1 -125814598 3789247#0 3789247#1 317127411 3708838#2 3708838#3 3708838#4 3708838#5 4908199#0 4908199#1 4908199#2 -3708465#5 -3708465#4 -3708465#3 -3708465#0 38587899#0 38587899#1 3789572 361409608#0 361409608#1 361409608#2 361409608#3 4408238#0 4408238#1 4408238#2 12854626#0 12854626#1 12854626#2 12854626#3 3791905#0 3791905#1 3791905#2 3791905#3" >
        <stop busStop="-842478107" duration="30.00" until="50.0"/> <!-- Manor Street -->
        <stop busStop="-842478106" duration="30.00" until="103.0"/> <!-- Stoneybatter -->
        <stop busStop="-842478111" duration="30.00" until="272.0"/> <!-- Blackhall Place -->
        <stop busStop="842484735" duration="30.00" until="413.0"/> <!-- Upper Ormond Quay -->
    </route>
    <route id="pt_tram_Luas_Red_Line:0" edges="352511043#0 352511043#1 352511043#2 352511043#3 352511043#4 352511043#5 352511043#6 352511043#7 352511043#8 352511043#9 352511043#10 352511043#11 352511043#12 352511043#13 352511043#14 352511043#15 352511043#16 352511043#17 352511043#18 352511043#19 352511043#20 352511043#21 352511043#22 352511043#23 352511043#24 352511043#25 352511043#26 352511043#27 352511043#28" >
        <stop busStop="3451318404" duration="30.00" until="66.0"/> <!-- Jervis -->
        <stop busStop="3451318438" duration="30.00" until="177.0"/> <!-- None -->
        <stop busStop="4683372272" duration="30.00" until="255.0"/> <!-- None -->
        <stop busStop="4683372273" duration="30.00" until="337.0"/> <!-- None -->
    </route>
    <route id="pt_bus_25x:0" edges="4401781#0 4401781#1 4401781#2 4401781#3 4401781#4" >
        <stop busStop="255016985" duration="30.00" until="116.0"/> <!-- Usher's Quay, Usher Street -->
    </route>
    <route id="pt_tram_Luas_Red_Line:3" edges="352511043#0 352511043#1 352511043#2 352511043#3 352511043#4 352511043#5 352511043#6 352511043#7 352511043#8 352511043#9 352511043#10 352511043#11 352511043#12 352511043#13 352511043#14 352511043#15 352511043#16 352511043#17 352511043#18 352511043#19 352511043#20 352511043#21 352511043#22 352511043#23 352511043#24 352511043#25 352511043#26 352511043#27 352511043#28" >
        <stop busStop="3451318404" duration="30.00" until="72.0"/> <!-- Jervis -->
        <stop busStop="3451318438" duration="30.00" until="182.0"/> <!-- None -->
        <stop busStop="4683372272" duration="30.00" until="263.0"/> <!-- None -->
        <stop busStop="4683372273" duration="30.00" until="345.0"/> <!-- None -->
    </route>
    <route id="pt_tram_Luas_Red_Line:2" edges="317127413#0 317127413#1 317127413#2 317127413#3 317127413#4 317127413#5 317127413#6 317127413#7 338055464#1 338055464#2 338055464#3 338055464#4 338055464#5 338055464#6 338055464#7 338055464#8 338055464#9 338055464#10 338055464#11 338055464#12 338055464#13 338055464#14 338055464#15 338055464#16 338055464#17 338055464#18 338055464#19 338055464#20 338055464#21" >
        <stop busStop="1396867040" duration="30.00" until="96.0"/> <!-- Museum -->
        <stop busStop="3709896536" duration="30.00" until="203.0"/> <!-- Smithfield -->
        <stop busStop="3451159931" duration="30.00" until="269.0"/> <!-- Four Courts -->
        <stop busStop="3451120785" duration="30.00" until="364.0"/> <!-- Jervis -->
    </route>
    <route id="pt_bus_51d:0" edges="529166754 4401781#0 4401781#1 4401781#2 4401781#3 4401781#4" >
        <stop busStop="255016985" duration="30.00" until="131.0"/> <!-- Usher's Quay, Usher Street -->
    </route>
    <route id="pt_bus_39a:1" edges="-3708463#2 -3708463#1 -3708463#0 -563891693 -125814738#2 -125814738#1 -125814598 3789247#0 3789247#1 317127411 3708838#2 3708838#3 3708838#4 3708838#5 4908199#0 4908199#1 4908199#2 -3708465#5 -3708465#4 -3708465#3 -3708465#0 38587899#0 38587899#1 3789572 361409608#0 361409608#1 361409608#2 361409608#3 4408238#0 4408238#1 4408238#2 12854626#0 12854626#1 12854626#2 12854626#3 3791905#0 3791905#1 3791905#2 3791905#3" >
        <stop busStop="-842478107" duration="30.00" until="53.0"/> <!-- Manor Street -->
        <stop busStop="-842478106" duration="30.00" until="107.0"/> <!-- Stoneybatter -->
        <stop busStop="-842478111" duration="30.00" until="240.0"/> <!-- Blackhall Place -->
        <stop busStop="842484735" duration="30.00" until="376.0"/> <!-- Upper Ormond Quay -->
    </route>
    <route id="pt_bus_37:0" edges="556390402#0 556390402#2 125863788 292236197 13907388 3789575#0 3789575#1 529166754 4401781#0 4401781#1 4401781#2 4401781#3 4401781#4 4408221 38587823 4401787 14331345 14331347 3708465#0 3708465#3 3708465#4 3708465#5 52822147#0 52822147#1 52822147#2 125814598 125814738#1 125814738#2 563891693 3708463#0 3708463#1 3708463#2" >
        <stop busStop="664499926" duration="30.00" until="120.0"/> <!-- Essex Quay, Exchange Street -->
        <stop busStop="598490680" duration="30.00" until="200.0"/> <!-- #1444 Merchant's Quay, Winetavern Street -->
        <stop busStop="255016985" duration="30.00" until="325.0"/> <!-- Usher's Quay, Usher Street -->
        <stop busStop="633552565" duration="30.00" until="461.0"/> <!-- Blackhall Place -->
        <stop busStop="878117184" duration="30.00" until="531.0"/> <!-- Stoneybatter -->
    </route>
    <route id="pt_bus_66:0" edges="529166754 4401781#0 4401781#1 4401781#2 4401781#3 4401781#4" >
        <stop busStop="255016985" duration="30.00" until="156.0"/> <!-- Usher's Quay, Usher Street -->
    </route>
    <route id="pt_bus_39a:0" edges="556390402#0 556390402#2 125863788 292236197 13907388 3789575#0 3789575#1 529166754 4401781#0 4401781#1 4401781#2 4401781#3 4401781#4 4408221 38587823 4401787 14331345 14331347 3708465#0 3708465#3 3708465#4 3708465#5 52822147#0 52822147#1 52822147#2 125814598 125814738#1 125814738#2 563891693 3708463#0 3708463#1 3708463#2" >
        <stop busStop="664499926" duration="30.00" until="152.0"/> <!-- Essex Quay, Exchange Street -->
        <stop busStop="598490680" duration="30.00" until="233.0"/> <!-- #1444 Merchant's Quay, Winetavern Street -->
        <stop busStop="255016985" duration="30.00" until="356.0"/> <!-- Usher's Quay, Usher Street -->
        <stop busStop="633552565" duration="30.00" until="495.0"/> <!-- Blackhall Place -->
        <stop busStop="878117184" duration="30.00" until="566.0"/> <!-- Stoneybatter -->
    </route>
    <route id="pt_bus_66b:0" edges="529166754 4401781#0 4401781#1 4401781#2 4401781#3 4401781#4" >
        <stop busStop="255016985" duration="30.00" until="175.0"/> <!-- Usher's Quay, Usher Street -->
    </route>
    <route id="pt_bus_66x:0" edges="529166754 4401781#0 4401781#1 4401781#2 4401781#3 4401781#4" >
        <stop busStop="255016985" duration="30.00" until="207.0"/> <!-- Usher's Quay, Usher Street -->
    </route>
    <route id="pt_bus_25A:1" edges="317127417 80433528 3789578 38587899#0 38587899#1 3789572 361409608#0 361409608#1 361409608#2 361409608#3 4408238#0 4408238#1 4408238#2 12854626#0 12854626#1 12854626#2 12854626#3 3791905#0 3791905#1 3791905#2 3791905#3" >
        <stop busStop="255016985@52346" duration="30.00" until="118.0"/> <!-- Usher's Quay, Usher Street -->
    </route>
    <route id="pt_bus_67x:0" edges="529166754 4401781#0 4401781#1 4401781#2 4401781#3 4401781#4" >
        <stop busStop="255016985" duration="30.00" until="245.0"/> <!-- Usher's Quay, Usher Street -->
    </route>
    <route id="pt_bus_25B:0" edges="556390402#0 556390402#2 125863788 292236197 13907388 3789575#0 3789575#1 529166754 4401781#0 4401781#1 4401781#2 4401781#3 4401781#4 4408221 38587823 37721990 13907386" >
        <stop busStop="255016985" duration="30.00" until="335.0"/> <!-- Usher's Quay, Usher Street -->
    </route>
    <route id="pt_bus_25B:1" edges="317127417 80433528 3789578 38587899#0 38587899#1 3789572 361409608#0 361409608#1 361409608#2 361409608#3 4408238#0 4408238#1 4408238#2 12854626#0 12854626#1 12854626#2 12854626#3 3791905#0 3791905#1 3791905#2 3791905#3" >
        <stop busStop="255016985@52346" duration="30.00" until="131.0"/> <!-- Usher's Quay, Usher Street -->
    </route>
    <route id="pt_bus_79:1" edges="80433528 3789578 38587899#0 38587899#1 3789572 361409608#0 361409608#1 361409608#2 361409608#3 4408238#0 4408238#1 4408238#2 12854626#0 12854626#1 12854626#2 12854626#3 4396056 31028273" >
        <stop busStop="667281715" duration="30.00" until="42.0"/> <!-- Wolfe Tone Quay, Ellis Street -->
        <stop busStop="842484735" duration="30.00" until="188.0"/> <!-- Upper Ormond Quay -->
    </route>
    <route id="pt_bus_79A:0" edges="3789575#0 3789575#1 3787679 384330741 4908185 3789252#1 -3789252#1 4408238#0 4408238#1 4408238#2 12854626#0 12854626#1 12854626#2 12854626#3 4396056 31028273 31028274 125863788 292236197 13907388 3789575#0 3789575#1 529166754 4401781#0 4401781#1 4401781#2 4401781#3" >
        <stop busStop="598490680" duration="30.00" until="49.0"/> <!-- #1444 Merchant's Quay, Winetavern Street -->
        <stop busStop="664499926" duration="30.00" until="219.0"/> <!-- Essex Quay, Exchange Street -->
        <stop busStop="255016985" duration="30.00" until="483.0"/> <!-- Usher's Quay, Usher Street -->
    </route>
    <route id="pt_bus_79A:1" edges="317127417 80433528 3789578 38587899#0 38587899#1 3789572 361409608#0 361409608#1 361409608#2 361409608#3 4408238#0 4408238#1 4408238#2 12854626#0 12854626#1 12854626#2 12854626#3 4396056 31028273" >
        <stop busStop="667281715" duration="30.00" until="71.0"/> <!-- Wolfe Tone Quay, Ellis Street -->
        <stop busStop="842484735" duration="30.00" until="231.0"/> <!-- Upper Ormond Quay -->
    </route>
    <route id="pt_bus_145:1" edges="556390402#0 556390402#2 125863788 292236197 13907388 3789575#0 3789575#1 529166754 4401781#0 4401781#1 4401781#2 4401781#3 4401781#4 4408221 38587823 37721990 13907386" >
        <stop busStop="664499926" duration="30.00" until="91.0"/> <!-- Essex Quay, Exchange Street -->
        <stop busStop="598490680" duration="30.00" until="190.0"/> <!-- #1444 Merchant's Quay, Winetavern Street -->
        <stop busStop="255016985" duration="30.00" until="464.0"/> <!-- Usher's Quay, Usher Street -->
    </route>
    <route id="pt_bus_69x:0" edges="556390402#0 556390402#2 125863788 292236197 13907388 3789575#0 3789575#1 529166754 4401781#0 4401781#1 4401781#2 4401781#3 4401781#4 4408221 38587823 37721990 13907386" >
        <stop busStop="664499926" duration="30.00" until="102.0"/> <!-- Essex Quay, Exchange Street -->
        <stop busStop="598490680" duration="30.00" until="164.0"/> <!-- #1444 Merchant's Quay, Winetavern Street -->
        <stop busStop="255016985" duration="30.00" until="363.0"/> <!-- Usher's Quay, Usher Street -->
    </route>
    <route id="pt_bus_79:0" edges="556390402#0 556390402#2 125863788 292236197 13907388 3789575#0 3789575#1 3787679 384330741 4908185 3789252#1 -3789252#1 4408238#0 4408238#1 4408238#2 12854626#0 12854626#1 12854626#2 12854626#3 4396056 31028273 31028274 125863788 292236197 13907388 3789575#0 3789575#1 529166754 4401781#0 4401781#1 4401781#2 4401781#3 4401781#4 4408221 38587823 37721990 13907386" >
        <stop busStop="598490680" duration="30.00" until="135.0"/> <!-- #1444 Merchant's Quay, Winetavern Street -->
        <stop busStop="664499926" duration="30.00" until="304.0"/> <!-- Essex Quay, Exchange Street -->
        <stop busStop="255016985" duration="30.00" until="566.0"/> <!-- Usher's Quay, Usher Street -->
    </route>
    <route id="pt_bus_69:0" edges="4401781#3 4401781#4 4408221 38587823 4401787 14331345 14331347 3708465#0 -3708465#0 38587899#0 38587899#1 3789572 361409608#0 361409608#1 361409608#2 361409608#3 4408238#0 4408238#1 4408238#2 12854626#0 12854626#1 12854626#2 12854626#3 4396056 31028273 31028274 125863788 292236197 13907388 3789575#0 3789575#1 3787679 384330741 4908185 3789252#1 -3789252#1 4408238#0 4408238#1 4408238#2 12854626#0 12854626#1 12854626#2 12854626#3 4396056 31028273 31028274 125863788 292236197" >
        <stop busStop="255016985" duration="30.00" until="39.0"/> <!-- Usher's Quay, Usher Street -->
        <stop busStop="598490680" duration="30.00" until="305.0"/> <!-- #1444 Merchant's Quay, Winetavern Street -->
        <stop busStop="664499926" duration="30.00" until="467.0"/> <!-- Essex Quay, Exchange Street -->
    </route>
    <route id="pt_bus_26:0" edges="556390402#0 556390402#2 125863788 292236197 13907388 3789575#0 3789575#1 529166754 4401781#0 4401781#1 4401781#2 4401781#3 4401781#4 4408221 38587823 37721990 13907386 4401781#3 4401781#4 4408221 38587823 37721990 13907386" >
        <stop busStop="650220218" duration="30.00" until="84.0"/> <!-- #1479 Ormond Quay, Capel Street -->
        <stop busStop="667281715@7176757" duration="30.00" until="488.0"/> <!-- Wolfe Tone Quay, Ellis Street -->
        <stop busStop="255016985" duration="30.00" until="861.0"/> <!-- Usher's Quay, Usher Street -->
    </route>
    <flow id="pt_bus_66a:0" type="pt_bus" route="pt_bus_66a:0" begin="58.0" end="3658.0" period="600" line="66a:0" >
        <param key="name" value="66a"/>
        <param key="completeness" value="0.50"/>
    </flow>
    <flow id="pt_bus_25A:0" type="pt_bus" route="pt_bus_25A:0" begin="52.0" end="3652.0" period="600" line="25A:0" >
        <param key="name" value="25A - Merrion Square - Lucan"/>
        <param key="completeness" value="0.06"/>
    </flow>
    <flow id="pt_bus_145:0" type="pt_bus" route="pt_bus_145:0" begin="93.0" end="3693.0" period="600" line="145:0" >
        <param key="name" value="Bus 145: Heuston Station =&gt; Ballywaltrim"/>
        <param key="completeness" value="0.04"/>
    </flow>
    <flow id="pt_bus_747:0" type="pt_bus" route="pt_bus_747:0" begin="201.0" end="3801.0" period="600" line="747:0" >
        <param key="name" value="Airlink 747"/>
        <param key="completeness" value="0.20"/>
    </flow>
    <flow id="pt_tram_Luas_Green_Line:0" type="pt_tram" route="pt_tram_Luas_Green_Line:0" begin="227.0" end="3827.0" period="360" line="Luas_Green_Line:0" >
        <param key="name" value="Luas Green Line: Brides Glen =&gt; Broombridge"/>
        <param key="completeness" value="0.07"/>
    </flow>
    <flow id="pt_bus_25:0" type="pt_bus" route="pt_bus_25:0" begin="58.0" end="3658.0" period="600" line="25:0" >
        <param key="name" value="25 - Merrion Square - Lucan (Dodsboro)"/>
        <param key="completeness" value="0.17"/>
    </flow>
    <flow id="pt_bus_67:0" type="pt_bus" route="pt_bus_67:0" begin="204.0" end="3804.0" period="600" line="67:0" >
        <param key="name" value="Dublin Bus route 67"/>
        <param key="completeness" value="0.13"/>
    </flow>
    <flow id="pt_bus_39:1" type="pt_bus" route="pt_bus_39:1" begin="15.0" end="3615.0" period="1800" line="39:1" >
        <param key="name" value="39 towards Ongar"/>
        <param key="completeness" value="0.14"/>
    </flow>
    <flow id="pt_bus_70:0" type="pt_bus" route="pt_bus_70:0" begin="331.0" end="3931.0" period="600" line="70:0" >
        <param key="name" value="70 toward Dunboyne"/>
        <param key="completeness" value="1.00"/>
    </flow>
    <flow id="pt_tram_Luas_Green_Line:1" type="pt_tram" route="pt_tram_Luas_Green_Line:1" begin="253.0" end="3853.0" period="360" line="Luas_Green_Line:1" >
        <param key="name" value="Luas Green Line: Broombridge =&gt; Brides Glen"/>
        <param key="completeness" value="0.07"/>
    </flow>
    <flow id="pt_bus_25d:0" type="pt_bus" route="pt_bus_25d:0" begin="362.0" end="3962.0" period="600" line="25d:0" >
        <param key="name" value="25d towards Adamstown Rail Station"/>
        <param key="completeness" value="1.00"/>
    </flow>
    <flow id="pt_tram_Luas_Red_Line:1" type="pt_tram" route="pt_tram_Luas_Red_Line:1" begin="132.0" end="3732.0" period="600" line="Luas_Red_Line:1" >
        <param key="name" value="Luas Red Line: Saggart =&gt; The Point"/>
        <param key="completeness" value="0.15"/>
    </flow>
    <flow id="pt_bus_39:0" type="pt_bus" route="pt_bus_39:0" begin="3.0" end="3603.0" period="1800" line="39:0" >
        <param key="name" value="39 towards Baggot Street"/>
        <param key="completeness" value="0.14"/>
    </flow>
    <flow id="pt_tram_Luas_Red_Line:0" type="pt_tram" route="pt_tram_Luas_Red_Line:0" begin="131.0" end="3731.0" period="600" line="Luas_Red_Line:0" >
        <param key="name" value="Luas Red Line: Connolly =&gt; Tallaght"/>
        <param key="completeness" value="0.19"/>
    </flow>
    <flow id="pt_bus_25x:0" type="pt_bus" route="pt_bus_25x:0" begin="383.0" end="3983.0" period="600" line="25x:0" >
        <param key="name" value="25x toward Lucan"/>
        <param key="completeness" value="1.00"/>
    </flow>
    <flow id="pt_tram_Luas_Red_Line:3" type="pt_tram" route="pt_tram_Luas_Red_Line:3" begin="165.0" end="3765.0" period="600" line="Luas_Red_Line:3" >
        <param key="name" value="Luas Red Line: The Point =&gt; Saggart"/>
        <param key="completeness" value="0.15"/>
    </flow>
    <flow id="pt_tram_Luas_Red_Line:2" type="pt_tram" route="pt_tram_Luas_Red_Line:2" begin="139.0" end="3739.0" period="600" line="Luas_Red_Line:2" >
        <param key="name" value="Luas Red Line: Tallaght =&gt; Connolly"/>
        <param key="completeness" value="0.19"/>
    </flow>
    <flow id="pt_bus_51d:0" type="pt_bus" route="pt_bus_51d:0" begin="406.0" end="4006.0" period="600" line="51d:0" >
        <param key="name" value="51d towards Clondalkin"/>
        <param key="completeness" value="1.00"/>
    </flow>
    <flow id="pt_bus_39a:1" type="pt_bus" route="pt_bus_39a:1" begin="119.0" end="3719.0" period="600" line="39a:1" >
        <param key="name" value="39a towards UCD"/>
        <param key="completeness" value="0.16"/>
    </flow>
    <flow id="pt_bus_37:0" type="pt_bus" route="pt_bus_37:0" begin="21.0" end="3621.0" period="1200" line="37:0" >
        <param key="name" value="37 - Baggot St - Blanchardstown Centre"/>
        <param key="completeness" value="0.11"/>
    </flow>
    <flow id="pt_bus_66:0" type="pt_bus" route="pt_bus_66:0" begin="418.0" end="4018.0" period="600" line="66:0" >
        <param key="name" value="66 towards Maynooth"/>
        <param key="completeness" value="1.00"/>
    </flow>
    <flow id="pt_bus_39a:0" type="pt_bus" route="pt_bus_39a:0" begin="27.0" end="3627.0" period="600" line="39a:0" >
        <param key="name" value="39a Towards Ongar"/>
        <param key="completeness" value="0.14"/>
    </flow>
    <flow id="pt_bus_66b:0" type="pt_bus" route="pt_bus_66b:0" begin="437.0" end="4037.0" period="600" line="66b:0" >
        <param key="name" value="66b towards Leixlip (Castletown)"/>
        <param key="completeness" value="1.00"/>
    </flow>
    <flow id="pt_bus_66x:0" type="pt_bus" route="pt_bus_66x:0" begin="443.0" end="4043.0" period="600" line="66x:0" >
        <param key="name" value="66x towards Maynooth"/>
        <param key="completeness" value="1.00"/>
    </flow>
    <flow id="pt_bus_25A:1" type="pt_bus" route="pt_bus_25A:1" begin="508.0" end="4108.0" period="600" line="25A:1" >
        <param key="name" value="25A - Lucan - Merrion Square"/>
        <param key="completeness" value="0.06"/>
    </flow>
    <flow id="pt_bus_67x:0" type="pt_bus" route="pt_bus_67x:0" begin="483.0" end="4083.0" period="600" line="67x:0" >
        <param key="name" value="67x towards Celbridge (Salesian College)"/>
        <param key="completeness" value="1.00"/>
    </flow>
    <flow id="pt_bus_25B:0" type="pt_bus" route="pt_bus_25B:0" begin="353.0" end="3953.0" period="600" line="25B:0" >
        <param key="name" value="25B - Merrion Square - Adamstown Rail Station"/>
        <param key="completeness" value="0.06"/>
    </flow>
    <flow id="pt_bus_25B:1" type="pt_bus" route="pt_bus_25B:1" begin="535.0" end="4135.0" period="600" line="25B:1" >
        <param key="name" value="25B - Adamstown Rail Station - Merrion Square"/>
        <param key="completeness" value="0.06"/>
    </flow>
    <flow id="pt_bus_79:1" type="pt_bus" route="pt_bus_79:1" begin="574.0" end="4174.0" period="600" line="79:1" >
        <param key="name" value="79 to Aston Quay"/>
        <param key="completeness" value="0.07"/>
    </flow>
    <flow id="pt_bus_79A:0" type="pt_bus" route="pt_bus_79A:0" begin="326.0" end="3926.0" period="600" line="79A:0" >
        <param key="name" value="79a towards Parkwest"/>
        <param key="completeness" value="0.10"/>
    </flow>
    <flow id="pt_bus_79A:1" type="pt_bus" route="pt_bus_79A:1" begin="583.0" end="4183.0" period="600" line="79A:1" >
        <param key="name" value="79a to Aston Quay"/>
        <param key="completeness" value="0.07"/>
    </flow>
    <flow id="pt_bus_145:1" type="pt_bus" route="pt_bus_145:1" begin="303.0" end="3903.0" period="600" line="145:1" >
        <param key="name" value="Bus 145: Ballywaltrim =&gt; Heuston Station"/>
        <param key="completeness" value="0.04"/>
    </flow>
    <flow id="pt_bus_69x:0" type="pt_bus" route="pt_bus_69x:0" begin="485.0" end="4085.0" period="600" line="69x:0" >
        <param key="name" value="69x towards Rathcoole"/>
        <param key="completeness" value="0.43"/>
    </flow>
    <flow id="pt_bus_79:0" type="pt_bus" route="pt_bus_79:0" begin="321.0" end="3921.0" period="600" line="79:0" >
        <param key="name" value="79 towards Spiddal Park"/>
        <param key="completeness" value="0.10"/>
    </flow>
    <flow id="pt_bus_69:0" type="pt_bus" route="pt_bus_69:0" begin="887.0" end="4487.0" period="600" line="69:0" >
        <param key="name" value="69 Hawkings St - Rathcoole"/>
        <param key="completeness" value="0.12"/>
    </flow>
    <flow id="pt_bus_26:0" type="pt_bus" route="pt_bus_26:0" begin="389.0" end="3989.0" period="600" line="26:0" >
        <param key="name" value="26 - Merrion Square - Palmerstown (Cemetery)"/>
        <param key="completeness" value="0.50"/>
    </flow>
</routes>
