<routes xmlns:xsi="http://www.w3.org/2001/XMLSchema-instance" xsi:noNamespaceSchemaLocation="http://sumo.dlr.de/xsd/routes_file.xsd">
    <vType id="pt_bus" vClass="bus">
        <param key="has.ssm.device" value="true" />
        <param key="device.ssm.file" value="Results/HDV-0.85_CAV2-0.075_CAV4-0.075/ssm_pt_bus.xml" />
        <param key="device.ssm.probability" value="1" />
        <param key="device.ssm.deterministic" value="True" />
        <param key="device.ssm.measures" value="TTC PET" />
        <param key="device.ssm.thresholds" value="1.5 1" />
        <param key="device.ssm.range" value="20" />
        <param key="device.ssm.extratime" value="0.5" />
        <param key="device.ssm.trajectories" value="False" />
        <param key="device.ssm.geo" value="True" />
        <param key="has.tripinfo.device" value="true" />
        <param key="device.tripinfo.probability" value="true" />
    </vType>
    <vType id="pt_tram" vClass="tram">
        <param key="has.ssm.device" value="true" />
        <param key="device.ssm.file" value="Results/HDV-0.85_CAV2-0.075_CAV4-0.075/ssm_pt_tram.xml" />
        <param key="device.ssm.probability" value="1" />
        <param key="device.ssm.deterministic" value="True" />
        <param key="device.ssm.measures" value="TTC PET" />
        <param key="device.ssm.thresholds" value="1.5 1" />
        <param key="device.ssm.range" value="20" />
        <param key="device.ssm.extratime" value="0.5" />
        <param key="device.ssm.trajectories" value="False" />
        <param key="device.ssm.geo" value="True" />
        <param key="has.tripinfo.device" value="true" />
        <param key="device.tripinfo.probability" value="true" />
    </vType>
    <vType id="pt_train" vClass="rail" />
    <vType id="pt_subway" vClass="rail_urban" />
    <vType id="pt_light_rail" vClass="rail_urban" />
    <vType id="pt_monorail" vClass="rail" />
    <vType id="pt_trolleybus" vClass="bus" />
    <vType id="pt_aerialway" vClass="bus" />
    <vType id="pt_ferry" vClass="ship" />
    <trip depart="3" departLane="best" from="-3708463#2" id="0_bus_39:0" to="3791905#3" type="pt_bus">
        <stop busStop="-842478107" duration="30" />
        <stop busStop="-842478106" duration="30" />
        <stop busStop="-842478111" duration="30" />
        <stop busStop="842484735" duration="30" />
    </trip>
    <trip depart="15" departLane="best" from="556390402#0" id="1_bus_39:1" to="3708463#2" type="pt_bus">
        <stop busStop="664499926" duration="30" />
        <stop busStop="598490680" duration="30" />
        <stop busStop="255016985" duration="30" />
        <stop busStop="633552565" duration="30" />
        <stop busStop="878117184" duration="30" />
    </trip>
    <trip depart="15" departLane="best" from="556390402#0" id="2_bus_37:0" to="3708463#2" type="pt_bus">
        <stop busStop="664499926" duration="30" />
        <stop busStop="598490680" duration="30" />
        <stop busStop="255016985" duration="30" />
        <stop busStop="633552565" duration="30" />
        <stop busStop="878117184" duration="30" />
    </trip>
    <trip depart="17" departLane="best" from="556390402#0" id="3_bus_39a:0" to="3708463#2" type="pt_bus">
        <stop busStop="664499926" duration="30" />
        <stop busStop="598490680" duration="30" />
        <stop busStop="255016985" duration="30" />
        <stop busStop="633552565" duration="30" />
        <stop busStop="878117184" duration="30" />
    </trip>
    <trip depart="52" departLane="best" from="556390402#0" id="4_bus_25A:0" to="13907386" type="pt_bus">
        <stop busStop="255016985" duration="30" />
    </trip>
    <trip depart="55" departLane="best" from="556390402#0" id="5_bus_25:0" to="13907386" type="pt_bus">
        <stop busStop="650220218" duration="30" />
    </trip>
    <trip depart="58" departLane="best" from="4401781#3" id="6_bus_66a:0" to="4401781#3" type="pt_bus">
        <stop busStop="255016985" duration="30" />
    </trip>
    <trip depart="93" departLane="best" from="317127417" id="7_bus_145:0" to="3791905#3" type="pt_bus">
        <stop busStop="667281715" duration="30" />
        <stop busStop="2929146637" duration="30" />
        <stop busStop="650220218@18359" duration="30" />
    </trip>
    <trip depart="119" departLane="best" from="-3708463#2" id="8_bus_39a:1" to="3791905#3" type="pt_bus">
        <stop busStop="-842478107" duration="30" />
        <stop busStop="-842478106" duration="30" />
        <stop busStop="-842478111" duration="30" />
        <stop busStop="842484735" duration="30" />
    </trip>
    <trip depart="131" departLane="best" from="352511043#0" id="9_tram_Luas_Red_Line:0" to="352511043#28" type="pt_tram">
        <stop busStop="3451318404" duration="30" />
        <stop busStop="3451318438" duration="30" />
        <stop busStop="4683372272" duration="30" />
        <stop busStop="4683372273" duration="30" />
    </trip>
    <trip depart="132" departLane="best" from="317127413#0" id="10_tram_Luas_Red_Line:1" to="338055464#21" type="pt_tram">
        <stop busStop="1396867040" duration="30" />
        <stop busStop="3709896536" duration="30" />
        <stop busStop="3451159931" duration="30" />
        <stop busStop="3451120785" duration="30" />
    </trip>
    <trip depart="133" departLane="best" from="317127413#0" id="11_tram_Luas_Red_Line:2" to="338055464#21" type="pt_tram">
        <stop busStop="1396867040" duration="30" />
        <stop busStop="3709896536" duration="30" />
        <stop busStop="3451159931" duration="30" />
        <stop busStop="3451120785" duration="30" />
    </trip>
    <trip depart="165" departLane="best" from="352511043#0" id="12_tram_Luas_Red_Line:3" to="352511043#28" type="pt_tram">
        <stop busStop="3451318404" duration="30" />
        <stop busStop="3451318438" duration="30" />
        <stop busStop="4683372272" duration="30" />
        <stop busStop="4683372273" duration="30" />
    </trip>
    <trip depart="201" departLane="best" from="5976030" id="13_bus_747:0" to="13907386" type="pt_bus">
        <stop busStop="255016985" duration="30" />
    </trip>
    <trip depart="204" departLane="best" from="317127417" id="14_bus_67:0" to="3791905#3" type="pt_bus">
        <stop busStop="255016985@52346" duration="30" />
    </trip>
    <trip depart="227" departLane="best" from="560223962#0" id="15_tram_Luas_Green_Line:0" to="548477025#5" type="pt_tram">
        <stop busStop="5298637240" duration="30" />
        <stop busStop="8398652317" duration="30" />
    </trip>
    <trip depart="253" departLane="best" from="549411867#0" id="16_tram_Luas_Green_Line:1" to="548477024#2" type="pt_tram">
        <stop busStop="3452492564" duration="30" />
        <stop busStop="3452492565" duration="30" />
    </trip>
    <trip depart="303" departLane="best" from="556390402#0" id="17_bus_145:1" to="13907386" type="pt_bus">
        <stop busStop="664499926" duration="30" />
        <stop busStop="598490680" duration="30" />
        <stop busStop="255016985" duration="30" />
    </trip>
    <trip depart="321" departLane="best" from="556390402#0" id="18_bus_79:0" to="13907386" type="pt_bus">
        <stop busStop="598490680" duration="30" />
        <stop busStop="664499926" duration="30" />
        <stop busStop="255016985" duration="30" />
    </trip>
    <trip depart="326" departLane="best" from="3789575#0" id="19_bus_79A:0" to="4401781#3" type="pt_bus">
        <stop busStop="598490680" duration="30" />
        <stop busStop="664499926" duration="30" />
        <stop busStop="255016985" duration="30" />
    </trip>
    <trip depart="331" departLane="best" from="529166754" id="20_bus_70:0" to="4401781#4" type="pt_bus">
        <stop busStop="255016985" duration="30" />
    </trip>
    <trip depart="353" departLane="best" from="556390402#0" id="21_bus_25B:0" to="13907386" type="pt_bus">
        <stop busStop="255016985" duration="30" />
    </trip>
    <trip depart="362" departLane="best" from="4401781#0" id="22_bus_25d:0" to="4401781#4" type="pt_bus">
        <stop busStop="255016985" duration="30" />
    </trip>
    <trip depart="383" departLane="best" from="4401781#0" id="23_bus_25x:0" to="4401781#4" type="pt_bus">
        <stop busStop="255016985" duration="30" />
    </trip>
    <trip depart="389" departLane="best" from="556390402#0" id="24_bus_26:0" to="13907386" type="pt_bus">
        <stop busStop="650220218" duration="30" />
        <stop busStop="667281715@7176757" duration="30" />
        <stop busStop="255016985" duration="30" />
    </trip>
    <trip depart="406" departLane="best" from="529166754" id="25_bus_51d:0" to="4401781#4" type="pt_bus">
        <stop busStop="255016985" duration="30" />
    </trip>
    <trip depart="418" departLane="best" from="529166754" id="26_bus_66:0" to="4401781#4" type="pt_bus">
        <stop busStop="255016985" duration="30" />
    </trip>
    <trip depart="437" departLane="best" from="529166754" id="27_bus_66b:0" to="4401781#4" type="pt_bus">
        <stop busStop="255016985" duration="30" />
    </trip>
    <trip depart="441" departLane="best" from="529166754" id="28_bus_66x:0" to="4401781#4" type="pt_bus">
        <stop busStop="255016985" duration="30" />
    </trip>
    <trip depart="483" departLane="best" from="529166754" id="29_bus_67x:0" to="4401781#4" type="pt_bus">
        <stop busStop="255016985" duration="30" />
    </trip>
    <trip depart="484" departLane="best" from="4401781#3" id="30_bus_69:0" to="292236197" type="pt_bus">
        <stop busStop="255016985" duration="30" />
        <stop busStop="598490680" duration="30" />
        <stop busStop="664499926" duration="30" />
    </trip>
    <trip depart="485" departLane="best" from="556390402#0" id="31_bus_69x:0" to="13907386" type="pt_bus">
        <stop busStop="664499926" duration="30" />
        <stop busStop="598490680" duration="30" />
        <stop busStop="255016985" duration="30" />
    </trip>
    <trip depart="508" departLane="best" from="317127417" id="32_bus_25A:1" to="3791905#3" type="pt_bus">
        <stop busStop="255016985@52346" duration="30" />
    </trip>
    <trip depart="535" departLane="best" from="317127417" id="33_bus_25B:1" to="3791905#3" type="pt_bus">
        <stop busStop="255016985@52346" duration="30" />
    </trip>
    <trip depart="574" departLane="best" from="80433528" id="34_bus_79:1" to="31028273" type="pt_bus">
        <stop busStop="667281715" duration="30" />
        <stop busStop="842484735" duration="30" />
    </trip>
    <trip depart="583" departLane="best" from="317127417" id="35_bus_79A:1" to="31028273" type="pt_bus">
        <stop busStop="667281715" duration="30" />
        <stop busStop="842484735" duration="30" />
    </trip>
</routes>